<flow:flow default_action="HELP" extends="Nomad.simple.guia.flow" xmlns:doc="nomad_engine.form" xmlns:qry="nomad_engine.form" xmlns:flow="nomad_engine.form" name="NucleusRH.Base.Liquidacion.Bancos.BANCO.guia">
	<flow:info label="Flow guia para NucleusRH.Base.Liquidacion.Bancos.BANCO"/>
	<flow:declare>
		<qry:define name="X2C">
			<qry:main doc="SOURCE">
				<qry:element name="ROW">
					<qry:insert-select doc-path="#SOURCE:" name="RS1"/>
				</qry:element>
			</qry:main>
			<qry:select doc="SOURCE" name="RS1">
				<qry:xquery>
					for $r in sql('SELECT t.d_interfaz as INTERFACE, t.oi_banco as ID, t.c_banco as CODE, t.d_banco as TEXT, SEC.policy  FROM LIQ22_BANCOS as t, NMD_SECURITY(class=\'NucleusRH.Base.Liquidacion.Bancos.BANCO\') as SEC JOIN t.oi_banco LEFT OUTER SEC.id  WHERE t.oi_banco={#SOURCE:helper-mess/@ID} ORDER BY CODE asc')/ROWS/ROW
				</qry:xquery>
				<qry:out>
					<qry:attribute value="$r/@ID" name="id"/>
					<qry:attribute value="$r/@ID" name="value"/>
					<qry:attribute value="$r/@CODE" name="code"/>
					<qry:attribute value="$r/@TEXT" name="text"/>
					<qry:attribute value="$r/@INTERFACE" name="interface"/>
				</qry:out>
			</qry:select>
		</qry:define>
		<qry:define name="C2X">
			<qry:main doc="SOURCE">
				<qry:append-doc doc-path="#SOURCE:helper-mess" name="INDOC"/>
				<qry:element name="ROW">
					<qry:insert-select doc-path="#SOURCE:" name="RS1"/>
				</qry:element>
			</qry:main>
			<qry:select doc="SOURCE" name="RS1">
				<qry:xquery>
					for $r in sql('SELECT t.d_interfaz as INTERFACE, t.oi_banco as ID, t.c_banco as CODE, t.d_banco as TEXT, SEC.policy  FROM LIQ22_BANCOS as t, NMD_SECURITY(class=\'NucleusRH.Base.Liquidacion.Bancos.BANCO\') as SEC JOIN t.oi_banco LEFT OUTER SEC.id  WHERE t.c_banco={substring_before(#INDOC:@CODE,\'-\')}  ORDER BY CODE asc')/ROWS/ROW
				</qry:xquery>
				<qry:out>
					<qry:attribute value="$r/@policy" name="policy"/>
					<qry:attribute value="''" name="SUB_SEARCH"/>
					<qry:attribute value="''" name="PARENTID"/>
					<qry:attribute value="$r/@ID" name="id"/>
					<qry:attribute value="$r/@ID" name="value"/>
					<qry:attribute value="$r/@CODE" name="code"/>
					<qry:attribute value="$r/@TEXT" name="text"/>
					<qry:attribute value="$r/@INTERFACE" name="interface"/>
				</qry:out>
			</qry:select>
		</qry:define>
		<qry:define name="HELP">
			<qry:main doc="SOURCE">
				<qry:element name="ROWS">
					<qry:insert-select doc-path="#SOURCE:" name="RS1"/>
				</qry:element>
			</qry:main>
			<qry:select doc="SOURCE" name="RS1">
				<qry:xquery>
					for $r in sql('SELECT t.d_interfaz as INTERFACE, t.oi_banco as ID, t.c_banco as CODE, t.d_banco as TEXT, SEC.policy  FROM LIQ22_BANCOS as t, NMD_SECURITY(class=\'NucleusRH.Base.Liquidacion.Bancos.BANCO\') as SEC JOIN t.oi_banco LEFT OUTER SEC.id  ORDER BY CODE asc')/ROWS/ROW
				</qry:xquery>
				<qry:out>
					<qry:element name="ROW">
						<qry:attribute value="$r/@ID" name="id"/>
						<qry:attribute value="$r/@ID" name="value"/>
						<qry:attribute value="$r/@CODE" name="code"/>
						<qry:attribute value="$r/@TEXT" name="text"/>
						<qry:attribute value="$r/@policy" name="policy"/>
						<qry:attribute value="$r/@INTERFACE" name="interface"/>
					</qry:element>
				</qry:out>
			</qry:select>
		</qry:define>
	</flow:declare>
</flow:flow>
