<flow:flow xmlns:flow="nomad_engine.flow" xmlns:doc="nomad_engine.doc" name="NucleusRH.Base.Liquidacion.Bancos.SUCURSAL.check.flow" extends="NucleusRH.Base.Organizacion.Empresas.CHECK.flow" default_action="OPEN-GUIA">
	<flow:info label="Flow guia para NucleusRH.Base.Liquidacion.Bancos.SUCURSAL.check"/>
	<flow:main doc="SOURCE">
		<flow:action name="OPEN-GUIA">
			<doc:set-attribute from-attr-path="#SOURCE:@empresa" to-attr-path="#DATA:@empresa"/>
			<flow:open-form form-class="NucleusRH.Base.Liquidacion.Bancos.SUCURSAL.check.form" doc-path="#DATA:" mode="SHOW"/>
		</flow:action>
	</flow:main>
	<flow:form form-class="NucleusRH.Base.Liquidacion.Bancos.SUCURSAL.check.form" name="NucleusRH.Base.Liquidacion.Bancos.SUCURSAL.check.form:SHOW" extends="NucleusRH.Base.Organizacion.Empresas.CHECK.form:SHOW" doc="SOURCE" mode="SHOW"/>
</flow:flow>
