<flow:flow xmlns:flow="nomad_engine.flow" xmlns:qry="nomad_engine.qry" extends="NucleusRH.Base.Capacitacion.Dictados.DICTADO.guia.autoflow" name="NucleusRH.Base.Capacitacion.Dictados.DICTADO.guia">
	<flow:info label="Flow guia para NucleusRH.Base.Capacitacion.Dictados.DICTADO"/>
	<flow:main doc="SOURCE"/>
	<flow:declare>
		<qry:define name="X2C">
			<qry:main doc="SOURCE">
				<qry:element name="ROW">
					<qry:insert-select doc-path="#SOURCE:" name="RS1"/>
				</qry:element>
			</qry:main>
			<qry:select doc="SOURCE" name="RS1">
				<qry:xquery>
					for $r in sql('
				SELECT t.oi_dictado as ID, 
				t.c_dictado as CODE, 
				t.d_dictado as TEXT, 
				t.oi_curso as PID, 
				SEC.policy  
				FROM CYD02_DICTADOS as t, 
				NMD_SECURITY(class=\'NucleusRH.Base.Capacitacion.Dictados.DICTADO\') as SEC 
				JOIN t.oi_dictado LEFT OUTER SEC.id  
				WHERE t.oi_dictado={#SOURCE:helper-mess/@ID} 
				AND t.c_estado = \'P\'
				ORDER BY CODE asc')/ROWS/ROW
				</qry:xquery>
				<qry:out>
					<qry:attribute value="$r/@ID" name="id"/>
					<qry:attribute value="$r/@ID" name="value"/>
					<qry:attribute value="$r/@CODE" name="code"/>
					<qry:attribute value="$r/@TEXT" name="text"/>
					<qry:attribute type="Nomad.NSystem.Int" value="$r/@PID" name="PID"/>
					<qry:insert-select doc-path="." name="RS2"/>
				</qry:out>
			</qry:select>
			<qry:select doc="SOURCE" name="RS2">
				<qry:xquery>
					for $r in sql('SELECT t.oi_curso as ID, t.c_curso as CODE, t.d_curso as TEXT, SEC.policy  FROM CYD01_CURSOS as t, NMD_SECURITY(class=\'NucleusRH.Base.Capacitacion.Cursos.CURSO\') as SEC JOIN t.oi_curso LEFT OUTER SEC.id  WHERE t.oi_curso={#SOURCE:@PID} ORDER BY CODE asc')/ROWS/ROW
				</qry:xquery>
				<qry:out>
					<qry:attribute value="$r/@CODE+'-'+#SOURCE:@CODE" name="code"/>
					<qry:attribute value="$r/@TEXT+'-'+#SOURCE:@TEXT" name="text"/>
				</qry:out>
			</qry:select>
		</qry:define>
		<qry:define name="C2X">
			<qry:main doc="SOURCE">
				<qry:append-doc doc-path="#SOURCE:helper-mess" name="INDOC"/>
				<qry:element name="ROW">
					<qry:insert-select doc-path="#SOURCE:" name="RS1"/>
				</qry:element>
			</qry:main>
			<qry:select doc="SOURCE" name="RS1">
				<qry:xquery>
					for $r in sql('SELECT t.oi_curso as ID, t.c_curso as CODE, t.d_curso as TEXT, SEC.policy  FROM CYD01_CURSOS as t, NMD_SECURITY(class=\'NucleusRH.Base.Capacitacion.Cursos.CURSO\') as SEC JOIN t.oi_curso LEFT OUTER SEC.id  WHERE t.c_curso={substring_before(#INDOC:@CODE,\'-\')} ORDER BY CODE asc')/ROWS/ROW
				</qry:xquery>
				<qry:out>
					<qry:attribute value="$r/@policy" name="policy"/>
					<qry:attribute value="substring_after(#INDOC:@CODE,'-')" name="SUB_SEARCH"/>
					<qry:attribute value="$r/@ID" name="PARENTID"/>
					<qry:attribute value="$r/@CODE" name="code"/>
					<qry:attribute value="$r/@TEXT" name="text"/>
					<qry:insert-select doc-path="." name="RS2"/>
				</qry:out>
			</qry:select>
			<qry:select doc="SOURCE" name="RS2">
				<qry:xquery>
					for $r in sql('
				SELECT t.oi_dictado as ID, 
				t.c_dictado as CODE, 
				t.d_dictado as TEXT, 
				t.oi_curso as PID, 
				SEC.policy  
				FROM CYD02_DICTADOS as t, 
				NMD_SECURITY(class=\'NucleusRH.Base.Capacitacion.Dictados.DICTADO\') as SEC 
				JOIN t.oi_dictado LEFT OUTER SEC.id  
				WHERE t.c_dictado={substring_before(#SOURCE:@SUB_SEARCH,\'-\')} 
				AND t.oi_curso={#SOURCE:@PARENTID} 
				AND t.c_estado = \'P\'
				ORDER BY CODE asc
			')/ROWS/ROW
				</qry:xquery>
				<qry:out>
					<qry:attribute value="$r/@policy" name="policy"/>
					<qry:attribute value="''" name="SUB_SEARCH"/>
					<qry:attribute value="''" name="PARENTID"/>
					<qry:attribute value="$r/@ID" name="id"/>
					<qry:attribute value="$r/@ID" name="value"/>
					<qry:attribute value="#SOURCE:@CODE+'-'+$r/@CODE" name="code"/>
					<qry:attribute value="#SOURCE:@TEXT+'-'+$r/@TEXT" name="text"/>
				</qry:out>
			</qry:select>
		</qry:define>
		<qry:define name="HELP">
			<qry:main doc="SOURCE">
				<qry:element name="ROW">
					<qry:attribute value="#SOURCE:ROW/@PARENTID" name="PARENTID"/>
					<qry:attribute value="#SOURCE:ROW/@CODE" name="CODE"/>
					<qry:attribute value="#SOURCE:ROW/@TEXT" name="TEXT"/>
					<qry:attribute value="#SOURCE:ROW/@FILTER" name="FILTER"/>
					<qry:insert-select doc-path="." name="RS2"/>
					<qry:element name="ROWS">
						<qry:insert-select doc-path=".." name="RS1"/>
					</qry:element>
				</qry:element>
			</qry:main>
			<qry:select doc="SOURCE" name="RS2">
				<qry:xquery>
					for $r in sql('SELECT t.oi_curso as ID, t.c_curso as CODE, t.d_curso as TEXT, SEC.policy  FROM CYD01_CURSOS as t, NMD_SECURITY(class=\'NucleusRH.Base.Capacitacion.Cursos.CURSO\') as SEC JOIN t.oi_curso LEFT OUTER SEC.id  WHERE t.oi_curso={#SOURCE:@PARENTID} ORDER BY CODE asc')/ROWS/ROW
				</qry:xquery>
				<qry:out>
					<qry:attribute value="$r/@CODE" name="code"/>
					<qry:attribute value="$r/@TEXT" name="text"/>
				</qry:out>
			</qry:select>
			<qry:select doc="SOURCE" name="RS1">
				<qry:xquery>
					for $r in sql('
				SELECT t.oi_dictado as ID, 
				t.c_dictado as CODE, 
				t.d_dictado as TEXT, 
				t.oi_curso as PID, 
				SEC.policy  
				FROM CYD02_DICTADOS as t, 
				NMD_SECURITY(class=\'NucleusRH.Base.Capacitacion.Dictados.DICTADO\') as SEC 
				JOIN t.oi_dictado LEFT OUTER SEC.id  
				WHERE  t.oi_curso={#SOURCE:@PARENTID} 
				AND t.c_estado = \'P\'
				ORDER BY CODE asc
			')/ROWS/ROW
				</qry:xquery>
				<qry:out>
					<qry:element name="ROW">
						<qry:attribute value="$r/@ID" name="id"/>
						<qry:attribute value="$r/@ID" name="value"/>
						<qry:attribute value="$r/@CODE" name="code1"/>
						<qry:attribute value="$r/@TEXT" name="text1"/>
						<qry:attribute value="#SOURCE:@CODE+'-'+$r/@CODE" name="code"/>
						<qry:attribute value="#SOURCE:@TEXT+'-'+$r/@TEXT" name="text"/>
					</qry:element>
				</qry:out>
			</qry:select>
		</qry:define>
	</flow:declare>
</flow:flow>
