<flow:flow xmlns:flow="nomad_engine.flow" xmlns:qry="nomad_engine.qry" name="NucleusRH.Base.Capacitacion.Dictados.DICTADO.CURSO.guia.flow" extends="Nomad.simple.guia.flow">
	<flow:main doc="SOURCE">
		<flow:action name="OPEN-GUIA">
			<flow:open-form form-class="NucleusRH.Base.Capacitacion.Dictados.DICTADO.CURSO.guia.form" parent-doc-path="#SOURCE:" doc-path="#SOURCE:" mode="SHOW"/>
		</flow:action>
	</flow:main>
	<flow:declare>
		<qry:define declare="                   &lt;helper-mess oi_curso=&quot;81&quot; id=&quot;1&quot;/&gt;" name="X2C">
			<qry:main doc="SOURCE">
				<qry:element name="ROW">
					<qry:insert-select name="RS1" doc-path="#SOURCE:helper-mess"/>
				</qry:element>
			</qry:main>
			<qry:select name="RS1" doc="SOURCE">
				<qry:xquery>
					for $r in sql('
				SELECT CYD02_DICTADOS.oi_dictado,
				CYD02_DICTADOS.c_dictado,
				CYD02_DICTADOS.d_dictado				
				FROM CYD02_DICTADOS				
				WHERE CYD02_DICTADOS.oi_curso = {#SOURCE:@oi_curso}
				AND CYD02_DICTADOS.oi_dictado = {#SOURCE:@id}
			')ROWS/ROW
				</qry:xquery>
				<qry:out>
					<qry:attribute value="$r/@oi_dictado" name="id"/>
					<qry:attribute value="$r/@oi_dictado" name="value"/>
					<qry:attribute value="$r/@c_dictado" name="code"/>
					<qry:attribute value="$r/@d_dictado" name="text"/>
					<qry:insert-select doc-path="." name="SECURITY"/>
				</qry:out>
			</qry:select>
			<qry:select doc="PARAM" name="SECURITY">
				<qry:xquery>
					for $r in sql('
				SELECT NMD_SECURITY.policy 
				FROM NMD_SECURITY 
				WHERE NMD_SECURITY.class=\'NucleusRH.Base.Capacitacion.Dictados.DICTADO\' 
				AND NMD_SECURITY.id={#PARAM:@id}
			')/ROWS/ROW
				</qry:xquery>
				<qry:out>
					<qry:attribute value="$r/@policy" name="policy"/>
				</qry:out>
			</qry:select>
		</qry:define>
		<qry:define declare="&lt;helper-mess oi_curso=&quot;81&quot; code=&quot;1&quot;/&gt;" name="C2X">
			<qry:main doc="SOURCE">
				<qry:element name="ROW">
					<qry:insert-select name="RS1" doc-path="#SOURCE:helper-mess"/>
				</qry:element>
			</qry:main>
			<qry:select name="RS1" doc="SOURCE">
				<qry:xquery>
					for $r in sql('
				SELECT CYD02_DICTADOS.oi_dictado,
				CYD02_DICTADOS.c_dictado,
				CYD02_DICTADOS.d_dictado				
				FROM CYD02_DICTADOS				
				WHERE CYD02_DICTADOS.oi_curso = {#SOURCE:@oi_curso}
				AND CYD02_DICTADOS.c_dictado = {substring_before(#SOURCE:@CODE,\'-\')}
			')ROWS/ROW
				</qry:xquery>
				<qry:out>
					<qry:attribute value="$r/@oi_dictado" name="id"/>
					<qry:attribute value="$r/@oi_dictado" name="value"/>
					<qry:attribute value="$r/@c_dictado" name="code"/>
					<qry:attribute value="$r/@d_dictado" name="text"/>
					<qry:insert-select doc-path="." name="SECURITY"/>
				</qry:out>
			</qry:select>
			<qry:select doc="PARAM" name="SECURITY">
				<qry:xquery>
					for $r in sql('
				SELECT NMD_SECURITY.policy 
				FROM NMD_SECURITY 
				WHERE NMD_SECURITY.class=\'NucleusRH.Base.Capacitacion.Dictados.DICTADO\' 
				AND NMD_SECURITY.id={#PARAM:@id}
			')/ROWS/ROW
				</qry:xquery>
				<qry:out>
					<qry:attribute value="$r/@policy" name="policy"/>
				</qry:out>
			</qry:select>
		</qry:define>
		<qry:define declare="&lt;helper-mess oi_curso=&quot;81&quot; /&gt;" name="HELP">
			<qry:main doc="SOURCE">
				<qry:element name="ROWS">
					<qry:insert-select name="RS1" doc-path="#SOURCE:helper-mess"/>
				</qry:element>
			</qry:main>
			<qry:select name="RS1" doc="SOURCE">
				<qry:xquery>
					for $r in sql('
				SELECT CYD02_DICTADOS.oi_dictado,
				CYD02_DICTADOS.c_dictado,
				CYD02_DICTADOS.d_dictado				
				FROM CYD02_DICTADOS				
				WHERE CYD02_DICTADOS.oi_curso = {#SOURCE:@oi_curso}				
			')ROWS/ROW
				</qry:xquery>
				<qry:out>
					<qry:element name="ROW">
						<qry:attribute value="$r/@oi_dictado" name="id"/>
						<qry:attribute value="$r/@oi_dictado" name="value"/>
						<qry:attribute value="$r/@c_dictado" name="code"/>
						<qry:attribute value="$r/@d_dictado" name="text"/>
						<qry:insert-select doc-path="." name="SECURITY"/>
					</qry:element>
				</qry:out>
			</qry:select>
			<qry:select doc="PARAM" name="SECURITY">
				<qry:xquery>
					for $r in sql('
				SELECT NMD_SECURITY.policy 
				FROM NMD_SECURITY 
				WHERE NMD_SECURITY.class=\'NucleusRH.Base.Capacitacion.Dictados.DICTADO\' 
				AND NMD_SECURITY.id={#PARAM:@id}
			')/ROWS/ROW
				</qry:xquery>
				<qry:out>
					<qry:attribute value="$r/@policy" name="policy"/>
				</qry:out>
			</qry:select>
		</qry:define>
	</flow:declare>
	<flow:form mode="SHOW" doc="SOURCE" name="NucleusRH.Base.Capacitacion.Dictados.DICTADO.CURSO.guia.form:SHOW" extends="Nomad.simple.guia.form:SHOW" form-class="NucleusRH.Base.Capacitacion.Dictados.DICTADO.CURSO.guia.form"/>
</flow:flow>
