<flow:flow xmlns:flow="nomad_engine.flow" xmlns:qry="nomad_engine.qry" extends="Nomad.simple.guia.flow" name="NucleusRH.Base.Capacitacion.Dictados.INSCRIPTO.guia">
	<flow:info label="Flow guia para NucleusRH.Base.Capacitacion.Dictados.INSCRIPTO"/>
	<flow:main doc="SOURCE">
		<flow:action name="OPEN-GUIA">
			<flow:open-form doc-path="#RS:" parent-doc-path="#SOURCE:" mode="SHOW" form-class="NucleusRH.Base.Capacitacion.Dictados.INSCRIPTO.guia.form"/>
		</flow:action>
	</flow:main>
	<flow:declare>
		<qry:define name="X2C">
			<qry:main doc="SOURCE">
				<qry:element name="ROW">
					<qry:insert-select doc-path="#SOURCE:" name="RS1"/>
				</qry:element>
			</qry:main>
			<qry:select doc="SOURCE" name="RS1">
				<qry:xquery>
					for $r in sql('
			SELECT CYD02_INSCRIPTOS.oi_inscripto AS ID, 
			PER02_PERSONAL_EMP.e_numero_legajo AS CODE, 
			PER01_PERSONAL.d_ape_y_nom AS TEXT, 
			CYD02_INSCRIPTOS.oi_dictado AS PID
			FROM CYD02_INSCRIPTOS, PER02_PERSONAL_EMP, PER01_PERSONAL
			JOIN PER02_PERSONAL_EMP.oi_personal INNER PER01_PERSONAL.oi_personal,
			PER02_PERSONAL_EMP.oi_personal_emp INNER CYD02_INSCRIPTOS.oi_personal_emp
			WHERE CYD02_INSCRIPTOS.oi_inscripto = {#SOURCE:helper-mess/@ID}			
			')/ROWS/ROW
				</qry:xquery>
				<qry:out>
					<qry:attribute type="Nomad.NSystem.Int" value="$r/@ID" name="id"/>
					<qry:attribute type="Nomad.NSystem.Int" value="$r/@ID" name="value"/>
					<qry:attribute type="Nomad.NSystem.String" value="$r/@CODE" name="code"/>
					<qry:attribute type="Nomad.NSystem.String" value="$r/@TEXT" name="text"/>
				</qry:out>
			</qry:select>
		</qry:define>
		<qry:define name="C2X">
			<qry:main doc="SOURCE">
				<qry:append-doc doc-path="#SOURCE:helper-mess" name="INDOC"/>
				<qry:element name="ROW">
					<qry:insert-select doc-path="#SOURCE:" name="RS1"/>
				</qry:element>
			</qry:main>
			<qry:select doc="SOURCE" name="RS1">
				<qry:xquery>
					for $r in sql('			
			SELECT CYD02_INSCRIPTOS.oi_inscripto AS ID, 
			PER02_PERSONAL_EMP.e_numero_legajo AS CODE, 
			PER01_PERSONAL.d_ape_y_nom AS TEXT 
			FROM CYD02_INSCRIPTOS, PER02_PERSONAL_EMP, PER01_PERSONAL
			JOIN PER02_PERSONAL_EMP.oi_personal INNER PER01_PERSONAL.oi_personal,
			CYD02_INSCRIPTOS.oi_personal_emp INNER PER02_PERSONAL_EMP.oi_personal_emp
			WHERE PER02_PERSONAL_EMP.e_numero_legajo={substring_before(#INDOC:@CODE,\'-\')}  
			AND CYD02_INSCRIPTOS.oi_dictado={#INDOC:@oi_dictado}
			')/ROWS/ROW
				</qry:xquery>
				<qry:out>
					<qry:attribute type="Nomad.NSystem.String" value="''" name="SUB_SEARCH"/>
					<qry:attribute type="Nomad.NSystem.String" value="''" name="PARENTID"/>
					<qry:attribute type="Nomad.NSystem.Int" value="$r/@ID" name="id"/>
					<qry:attribute type="Nomad.NSystem.Int" value="$r/@ID" name="value"/>
					<qry:attribute type="Nomad.NSystem.String" value="$r/@CODE" name="code"/>
					<qry:attribute type="Nomad.NSystem.String" value="$r/@TEXT" name="text"/>
				</qry:out>
			</qry:select>
		</qry:define>
		<qry:define declare="&lt;helper-mess oi_dictado=&quot;2&quot;/&gt;" name="HELP">
			<qry:main doc="SOURCE">
				<qry:element name="ROWS">
					<qry:insert-select name="RS1" doc-path="#SOURCE:"/>
				</qry:element>
			</qry:main>
			<qry:select doc="SOURCE" name="RS1">
				<qry:xquery>
					for $r in sql('
			SELECT CYD02_INSCRIPTOS.oi_inscripto AS ID, 
			PER02_PERSONAL_EMP.e_numero_legajo AS CODE, 
			PER01_PERSONAL.d_ape_y_nom AS TEXT 
			FROM CYD02_INSCRIPTOS, PER02_PERSONAL_EMP, PER01_PERSONAL
			JOIN PER02_PERSONAL_EMP.oi_personal INNER PER01_PERSONAL.oi_personal,
			CYD02_INSCRIPTOS.oi_personal_emp INNER PER02_PERSONAL_EMP.oi_personal_emp
			WHERE CYD02_INSCRIPTOS.oi_dictado = {#SOURCE:helper-mess/@oi_dictado}
			')/ROWS/ROW
				</qry:xquery>
				<qry:out>
					<qry:element name="ROW">
						<qry:attribute type="Nomad.NSystem.Int" value="$r/@ID" name="id"/>
						<qry:attribute type="Nomad.NSystem.Int" value="$r/@ID" name="value"/>
						<qry:attribute type="Nomad.NSystem.String" value="$r/@CODE" name="code"/>
						<qry:attribute type="Nomad.NSystem.String" value="$r/@TEXT" name="text"/>
					</qry:element>
				</qry:out>
			</qry:select>
		</qry:define>
	</flow:declare>
	<flow:form name="NucleusRH.Base.Capacitacion.Dictados.INSCRIPTO.guia.form:HOW" extends="nomad.simple.guia.form:SHOW" parent-doc="INVAL" doc="SOURCE" mode="SHOW" form-class="NucleusRH.Base.Capacitacion.Dictados.INSCRIPTO.guia.form"/>
</flow:flow>
