<flow:flow xmlns:flow="nomad_engine.flow" xmlns:doc="nomad_engine.doc" name="NucleusRH.Base.Liquidacion.Liquidacion.ComprimirArchivos.flow" default_action="initialize">
	<flow:info label="Flow guia para NucleusRH.Base.Liquidacion.Liquidacion.ComprimirArchivos"/>
	<flow:main doc="SOURCE">
		<flow:action name="initialize">
			<flow:load-user-data name="ComprimirArchivos" doc="DATA"/>
			<flow:open-form form-class="NucleusRH.Base.Liquidacion.Liquidacion.ComprimirArchivos.form" parent-doc-path="#DATA:" doc-path="#DATA:" mode="SHOW"/>
		</flow:action>
	</flow:main>
	<flow:declare>
		<doc:define name="DATA">
			<DATA/>
		</doc:define>
		<doc:define name="BATCHDOC">
			<VALUE batch-id=""/>
		</doc:define>
	</flow:declare>
	<flow:form form-class="NucleusRH.Base.Liquidacion.Liquidacion.ComprimirArchivos.form" name="NucleusRH.Base.Liquidacion.Liquidacion.ComprimirArchivos.form:SHOW" parent-doc="PARENT" doc="SOURCE" mode="SHOW">
		<flow:action name="on-show"/>
		<flow:action name="DESC">
			<flow:save-user-data name="ComprimirArchivos" doc-path="#SOURCE:"/>
			<flow:exec-method method="DescomprimirArchivosRecibo" class="NucleusRH.Base.Liquidacion.LiquidacionDDO.LIQUIDACION_DDO" out-attr-path="#BATCHDOC:@batch-id" out-type="String" priority="9">
				<flow:param attr-path="#SOURCE:@e_periodo" type="Nomad.NSystem.String" name="e_periodo" mode="in"/>
			</flow:exec-method>
			<flow:open-form doc-path="#BATCHDOC:" mode="BATCH" form-class="nomad.base.batchtolist.form"/>
		</flow:action>
		<flow:action name="COMP">
			<flow:save-user-data name="ComprimirArchivos" doc-path="#SOURCE:"/>
			<flow:exec-method method="ComprimirArchivosReciboPeriodo" class="NucleusRH.Base.Liquidacion.LiquidacionDDO.LIQUIDACION_DDO" out-attr-path="#BATCHDOC:@batch-id" out-type="String" priority="9">
				<flow:param attr-path="#SOURCE:@e_periodo" type="Nomad.NSystem.String" name="e_periodo" mode="in"/>
			</flow:exec-method>
			<flow:open-form doc-path="#BATCHDOC:" mode="BATCH" form-class="nomad.base.batchtolist.form"/>
		</flow:action>
		<flow:action name="CANCEL">
			<flow:exit-flow return-path="#SOURCE:"/>
		</flow:action>
	</flow:form>
	<flow:form mode="BATCH" name="nomad.base.batchtolist.form:BATCH" form-class="nomad.base.batchtolist.form" doc="SOURCE">
		<flow:action name="on-show"/>
		<flow:action name="EXIT">
			<flow:close-form/>
		</flow:action>
	</flow:form>
</flow:flow>
