<flow:flow xmlns:doc="nomad_engine.form" xmlns:qry="nomad_engine.form" xmlns:flow="nomad_engine.form" name="NucleusRH.Base.Liquidacion.Liquidacion.Inicializar.LegajoLiq.guia">
	<flow:info label="Flow guia para NucleusRH.Base.Liquidacion.Liquidacion.Inicializar.LegajoLiq"/>
	<flow:main doc="SOURCE">
		<flow:action name="C2X">
			<doc:load-qry output-doc="RS" input-doc-path="#SOURCE:" qry="C2X"/>
			<flow:exit-flow return-path="#RS:"/>
		</flow:action>
		<flow:action name="HELP">
			<doc:load-qry output-doc="RS" input-doc-path="#SOURCE:" qry="HELP"/>
			<flow:log text-path="#RS:" text="aaaaaa"/>
			<flow:open-form doc-path="#RS:" parent-doc-path="#SOURCE:" mode="SHOW" form-class="NucleusRH.Base.Liquidacion.Liquidacion.Inicializar.LegajoLiq.guia.form"/>
		</flow:action>
		<flow:action name="X2C">
			<flow:log text-path="#SOURCE:" text="EstebanX2CRES"/>
			<doc:load-qry output-doc="RS" input-doc-path="#SOURCE:" qry="X2C"/>
			<flow:exit-flow return-path="#RS:"/>
		</flow:action>
	</flow:main>
	<flow:declare>
		<doc:define name="RS"/>
		<qry:define declare="    &#13;&#10;&lt;helper-mess liq=&quot;1&quot; code=&quot;&quot; id=&quot;239&quot; text=&quot;&quot;&gt;&lt;rows&gt;&lt;row oi_personal_emp=&quot;&quot; /&gt;&lt;/rows&gt;&lt;/helper-mess&gt;" name="X2C">
			<qry:main doc="SOURCE">
				<qry:element name="ROW">
					<qry:attribute value="#SOURCE:helper-mess/@liq" type="Nomad.NSystem.Int" name="liq"/>
					<qry:insert-select doc-path="#SOURCE:" name="RS1"/>
				</qry:element>
			</qry:main>
			<qry:select doc="SOURCE" name="RS1">
				<qry:xquery>
					for $r in table('
{%? 
(#SOURCE:helper-mess/@liq!='')	
	{% 
		select
        PER02_PERSONAL_EMP.OI_PERSONAL_EMP ID
        , E_NUMERO_LEGAJO CODE
        , D_APE_Y_NOM TEXT
        from PER02_PERSONAL_EMP
        , org03_empresas
        , PER01_PERSONAL
        , liq19_liquidacion 
        , liq07_personal
				where liq07_personal.oi_personal_emp = per02_personal_emp.oi_personal_emp 
				AND PER02_PERSONAL_EMP.OI_PERSONAL = PER01_PERSONAL.OI_PERSONAL 
        and liq19_liquidacion.oi_empresa = org03_empresas.oi_empresa 
        AND liq19_liquidacion.OI_LIQUIDACION = {#SOURCE:helper-mess/@liq}
        AND PER02_PERSONAL_EMP.oi_empresa = org03_empresas.oi_empresa 
        and PER02_PERSONAL_EMP.OI_PERSONAL_EMP={#SOURCE:helper-mess/@ID}
        and PER02_PERSONAL_EMP.OI_PERSONAL_EMP not in 
        (select liq25_personal_liq.oi_personal_emp 
        from liq25_personal_liq 
				where liq25_personal_liq.oi_liquidacion = 
				{%= #SOURCE:helper-mess/@liq %})
			
    %} {% select 1 where 1 = 2 %} %}		
        ')/ROWS/ROW
				</qry:xquery>
				<qry:out>
					<qry:attribute type="Nomad.NSystem.Int" value="$r/@ID" name="id"/>
					<qry:attribute type="Nomad.NSystem.Int" value="$r/@ID" name="value"/>
					<qry:attribute type="Nomad.NSystem.String" value="$r/@CODE" name="code"/>
					<qry:attribute type="Nomad.NSystem.String" value="$r/@TEXT" name="text"/>
				</qry:out>
			</qry:select>
		</qry:define>
		<qry:define declare="&lt;helper-mess liq=&quot;1&quot; code=&quot;8&quot;&gt;&#13;&#10;&lt;rows&gt;&#13;&#10;&lt;row oi_personal_emp= &quot;13&quot; /&gt;&#13;&#10;&lt;/rows&gt;      &#13;&#10;&lt;/helper-mess&gt;" name="C2X">
			<qry:main doc="SOURCE">
				<qry:element name="ROW">
					<qry:attribute type="Nomad.NSystem.String" value="#SOURCE:helper-mess/@liq" name="liq"/>
					<qry:insert-select doc-path="#SOURCE:" name="RS2"/>
				</qry:element>
			</qry:main>
			<qry:select doc="SOURCE" name="RS2">
				<qry:xquery>
					for $r in table('
{%? 
(#SOURCE:helper-mess/@liq!='')	
	{% 			
			select PER02_PERSONAL_EMP.OI_PERSONAL_EMP IDD, E_NUMERO_LEGAJO, D_APE_Y_NOM from PER02_PERSONAL_EMP, PER01_PERSONAL, liq19_liquidacion, org03_empresas          
        				, liq07_personal
				where liq07_personal.oi_personal_emp = per02_personal_emp.oi_personal_emp AND 
				
				 PER02_PERSONAL_EMP.OI_PERSONAL = PER01_PERSONAL.OI_PERSONAL 
				and PER02_PERSONAL_EMP.oi_empresa = org03_empresas.oi_empresa 							
				and liq19_liquidacion.oi_empresa = org03_empresas.oi_empresa 
        AND liq19_liquidacion.OI_LIQUIDACION = {#SOURCE:helper-mess/@liq} 
        AND   E_NUMERO_LEGAJO={%= #SOURCE:helper-mess/@code %}
        and PER02_PERSONAL_EMP.OI_PERSONAL_EMP not in 
        (select liq25_personal_liq.oi_personal_emp 
				from liq25_personal_liq 
				where liq25_personal_liq.oi_liquidacion = {%= #SOURCE:helper-mess/@liq %})
				
				AND {%? 
					(string(#SOURCE:helper-mess/rows/row/@oi_personal_emp)!='') 
						{%  PER02_PERSONAL_EMP.OI_PERSONAL_EMP not in 
							({%=string(#SOURCE:helper-mess/rows/row/@oi_PERSONAL_EMP) %}) 
						%} 
						{% 
							1 = 1 
						%} 
					%}
                
                   %} {% select 1 where 1 = 2 %} %}		
        ')/ROWS/ROW
				</qry:xquery>
				<qry:out>
					<qry:attribute type="Nomad.NSystem.Int" value="$r/@IDD" name="id"/>
					<qry:attribute type="Nomad.NSystem.Int" value="$r/@IDD" name="value"/>
					<qry:attribute type="Nomad.NSystem.String" value="$r/@E_NUMERO_LEGAJO" name="code"/>
					<qry:attribute type="Nomad.NSystem.String" value="$r/@D_APE_Y_NOM" name="text"/>
				</qry:out>
			</qry:select>
		</qry:define>
		<qry:define declare="&lt;helper-mess liq=&quot;1&quot;&gt;&#13;&#10;&lt;rows&gt;&#13;&#10;&lt;row oi_personal_emp = &quot;12&quot; /&gt;&#13;&#10;&lt;/rows&gt;      &#13;&#10;&lt;/helper-mess&gt;" name="HELP">
			<qry:main doc="SOURCE">
				<qry:element name="ROWS">
					<qry:insert-select name="RS1" doc-path="#SOURCE:"/>
				</qry:element>
			</qry:main>
			<qry:select doc="SOURCE" name="RS1">
				<qry:xquery>
					for $r in table('select PER02_PERSONAL_EMP.OI_PERSONAL_EMP IDD
			, E_NUMERO_LEGAJO, D_APE_Y_NOM 
			from PER02_PERSONAL_EMP, org03_empresas
			, PER01_PERSONAL, liq19_liquidacion          
      , liq07_personal
				where liq07_personal.oi_personal_emp = per02_personal_emp.oi_personal_emp AND 
				
				 PER02_PERSONAL_EMP.OI_PERSONAL = PER01_PERSONAL.OI_PERSONAL 
        and liq19_liquidacion.oi_empresa = org03_empresas.oi_empresa 
        AND liq19_liquidacion.OI_LIQUIDACION = {#SOURCE:helper-mess/@liq} 
        and PER02_PERSONAL_EMP.OI_PERSONAL_EMP not in 
        (select liq25_personal_liq.oi_personal_emp 
				from liq25_personal_liq 
				where liq25_personal_liq.oi_liquidacion = {%= #SOURCE:helper-mess/@liq %})
				AND 
				{%? 
					(string(#SOURCE:helper-mess/rows/row/@oi_personal_emp)!='') 
						{%  PER02_PERSONAL_EMP.OI_PERSONAL_EMP not in 
							({%=string(#SOURCE:helper-mess/rows/row/@oi_personal_emp) %}) 
						%} 
						{% 
							1 = 1
						%} 
					%}				

        AND PER02_PERSONAL_EMP.oi_empresa = org03_empresas.oi_empresa ')/ROWS/ROW
				</qry:xquery>
				<qry:out>
					<qry:element name="ROW">
						<qry:attribute type="Nomad.NSystem.String" value="#SOURCE:helper-mess/@liq" name="liq"/>
						<qry:attribute type="Nomad.NSystem.Int" value="$r/@IDD" name="id"/>
						<qry:attribute type="Nomad.NSystem.Int" value="$r/@IDD" name="value"/>
						<qry:attribute type="Nomad.NSystem.String" value="$r/@E_NUMERO_LEGAJO" name="code"/>
						<qry:attribute type="Nomad.NSystem.String" value="$r/@D_APE_Y_NOM" name="text"/>
					</qry:element>
				</qry:out>
			</qry:select>
		</qry:define>
	</flow:declare>
	<flow:form name="NucleusRH.Base.Liquidacion.Liquidacion.Inicializar.LegajoLiq.guia.form" parent-doc="INVAL" doc="SOURCE" mode="SHOW" form-class="NucleusRH.Base.Liquidacion.Liquidacion.Inicializar.LegajoLiq.guia.form">
		<flow:action name="on-show"/>
		<flow:action name="ACCEPT">
			<flow:exit-flow return-path="#RS:ROW[@id={#FORM:ctrl[@id='GRID']/@selectedRow}]"/>
		</flow:action>
		<flow:action name="CANCEL">
			<flow:exit-flow return-path="#INVAL:"/>
		</flow:action>
	</flow:form>
</flow:flow>
