<flow:flow name="NucleusRH.Base.Postulantes.CV.CV.CAMBIO_ESTADO.flow" xmlns:doc="nomad_engine.form" xmlns:qry="nomad_engine.form" xmlns:flow="nomad_engine.form">
	<flow:info label="Flow guia para "/>
	<flow:main doc="SOURCE">
		<flow:action name="HELP">
			<flow:open-form form-class="NucleusRH.Base.Postulantes.CV.CV.CAMBIO_ESTADO.form" doc-path="#SOURCE:" parent-doc-path="#SOURCE:" mode="SHOW"/>
		</flow:action>
		<flow:action name="LEGALES">
			<flow:open-form form-class="NucleusRH.Base.Postulantes.CV.CV.LEGALES.form" doc-path="#SOURCE:" parent-doc-path="#SOURCE:" mode="SHOW"/>
		</flow:action>
	</flow:main>
	<flow:declare>
		<doc:define name="NADA"/>
	</flow:declare>
	<flow:form form-class="NucleusRH.Base.Postulantes.CV.CV.CAMBIO_ESTADO.form" name="NucleusRH.Base.Postulantes.CV.CV.CAMBIO_ESTADO.form:SHOW" parent-doc="INVAL" doc="SOURCE" mode="SHOW">
		<flow:action name="ACCEPT">
			<flow:log text="bbbb1" text-path="#SOURCE:"/>
			<flow:exit-flow return-path="#SOURCE:"/>
		</flow:action>
		<flow:action name="CANCEL">
			<flow:exit-flow return-path="#NADA:"/>
		</flow:action>
	</flow:form>
	<flow:form form-class="NucleusRH.Base.Postulantes.CV.CV.LEGALES.form" name="NucleusRH.Base.Postulantes.CV.CV.LEGALES.form:SHOW" parent-doc="INVAL" doc="SOURCE" mode="SHOW">
		<flow:action name="ACCEPT">
			<flow:log text="bbbb1" text-path="#SOURCE:"/>
			<flow:exit-flow return-path="#SOURCE:"/>
		</flow:action>
		<flow:action name="CANCEL">
			<flow:exit-flow return-path="#NADA:"/>
		</flow:action>
	</flow:form>
</flow:flow>
