<flow:flow xmlns:flow="nomad_engine.flow" xmlns:doc="nomad_engine.doc" name="NucleusRH.Base.Tiempos_Trabajados.Nomina.EXPORTAR.flow" extends="Nomad.Base.flow" default_action="initialize">
	<flow:info label="ExportarNomina"/>
	<flow:declare>
		<doc:define name="FILTERDATA">
			<FILTRO terminal="">
				<ROWS/>
			</FILTRO>
		</doc:define>
		<doc:define name="FILE"/>
	</flow:declare>
	<flow:main doc="SOURCE">
		<flow:action name="initialize">
			<flow:open-form doc-path="#FILTERDATA:" form-class="NucleusRH.Base.Tiempos_Trabajados.Nomina.EXPORTAR.filter.form" mode="FILTER"/>
		</flow:action>
	</flow:main>
	<flow:form name="NucleusRH.Base.Tiempos_Trabajados.Nomina.EXPORTAR.filter.form:FILTER" form-class="NucleusRH.Base.Tiempos_Trabajados.Nomina.EXPORTAR.filter.form" mode="FILTER" doc="SOURCE" parent-doc="PARENTSOURCE">
		<flow:action name="on-show">
			<flow:call-action action="Load-FILTER"/>
			<flow:attach-doc attach-id="ARRB" doc-path="#SOURCE:ROWS"/>
		</flow:action>
		<flow:action name="BACK">
			<flow:close-form/>
		</flow:action>
		<flow:action name="Save-FILTER">
			<flow:save-user-data name="FILTER-NucleusRH.Base.Tiempos_Trabajados.ExportarNomina" doc-path="#FILTERDATA:"/>
		</flow:action>
		<flow:action name="Load-FILTER">
			<flow:load-user-data name="FILTER-NucleusRH.Base.Tiempos_Trabajados.ExportarNomina" doc="FILTERDATA"/>
		</flow:action>
		<flow:action name="ACCEPT">
			<flow:load-user-data name="NOMINALIST" doc="FILE"/>
			<doc:delete-object doc-path="#SOURCE:ROWS"/>
			<doc:add-object doc-path="#FILE:" parent-doc-path="#SOURCE:"/>
			<flow:call-action action="Save-FILTER"/>
			<flow:exec-method method="ExportarNomina" priority="5" out-type="String" out-attr-path="#BATCHDOC:@batch-id" class="NucleusRH.Base.Tiempos_Trabajados.Terminales.TERMINAL">
				<flow:param attr-path="#SOURCE:@oi_terminal" mode="in" name="oi_terminal" type="Nomad.NSystem.Int"/>
				<flow:param type="Nomad.NSystem.Proxy.NomadXML" doc-path="#SOURCE:ROWS" name="param" mode="in"/>
			</flow:exec-method>
			<flow:open-form form-class="nomad.base.batchtolist.form" mode="BATCH" doc-path="#BATCHDOC:"/>
		</flow:action>
	</flow:form>
</flow:flow>
