<flow:flow name="NucleusRH.Base.Liquidacion.Liquidacion.EjecutarInterfaces.Conceptos.LM.guia.form" extends="Nomad.simple.guia.flow" xmlns:flow="nomad_engine.form" xmlns:qry="nomad_engine.form" xmlns:doc="nomad_engine.form">
	<flow:main doc="SOURCE">
		<flow:action name="HELP">
			<doc:load-qry qry="HELP" input-doc-path="#SOURCE:" output-doc="RS"/>
			<flow:open-form form-class="NucleusRH.Base.Liquidacion.Liquidacion.EjecutarInterfaces.Conceptos.LM.guia.form" mode="SHOW" doc-path="#RS:" parent-doc-path="#SOURCE:"/>
		</flow:action>
	</flow:main>
	<flow:declare>
		<doc:define name="RS"/>
		<doc:define name="OUT"/>
		<qry:define declare="&lt;helper-mess&gt;&#13;&#10;&#9;&lt;rows&gt;&#13;&#10;&#9;&#9;&lt;row oi_concepto = &quot;50&quot;/&gt;&#13;&#10;&#9;&lt;/rows&gt;&#13;&#10;&lt;/helper-mess&gt;&#13;&#10;" name="HELP">
			<qry:main doc="SOURCE">
				<qry:element name="ROWS">
					<qry:insert-select doc-path="#SOURCE:" name="RS1"/>
					<qry:insert-select doc-path="#SOURCE:" name="RS2"/>
				</qry:element>
			</qry:main>
			<qry:select name="RS1" doc="SOURCE">
				<qry:xquery>
					for $r in sql('
SELECT
	c.oi_concepto,
	c.c_concepto, 
	c.d_concepto, 
	t.c_tipo_concepto, t.d_tipo_concepto

FROM 
	LIQ14_CONCEPTOS AS c, 
	LIQ12_TIPOS_CONC AS t
WHERE 
	c.oi_tipo_concepto = t.oi_tipo_concepto
	AND t.c_tipo_concepto IN (\'6\', \'9\')
	AND 
					
					{%? (string(#SOURCE:helper-mess/rows/row/@oi_concepto)!='') 
					{%  c.oi_concepto in ({%=string(#SOURCE:helper-mess/rows/row/@oi_concepto) %}) %} 
					{% 1 = 2 %} 
					%}
			')/ROWS/ROW
				</qry:xquery>
				<qry:out>
					<qry:element name="ROW">
						<qry:attribute name="id" value="$r/@oi_concepto" type="Nomad.NSystem.Int"/>
						<qry:attribute name="value" value="$r/@oi_concepto" type="Nomad.NSystem.Int"/>
						<qry:attribute name="code" value="$r/@c_concepto" type="Nomad.NSystem.String"/>
						<qry:attribute name="text" value="$r/@d_concepto" type="Nomad.NSystem.String"/>
						<qry:attribute name="check" value="1" type="Nomad.NSystem.Boolean"/>
					</qry:element>
				</qry:out>
			</qry:select>
			<qry:select name="RS2" doc="SOURCE">
				<qry:xquery>
					for $r in sql('
				SELECT
	c.oi_concepto,
	c.c_concepto, 
	c.d_concepto, 
	t.c_tipo_concepto, t.d_tipo_concepto

FROM 
	LIQ14_CONCEPTOS AS c, 
	LIQ12_TIPOS_CONC AS t
WHERE 
	c.oi_tipo_concepto = t.oi_tipo_concepto
	AND t.c_tipo_concepto IN (\'6\', \'9\')
	AND
					{%? (string(#SOURCE:helper-mess/rows/row/@oi_concepto)!='') {%  c.oi_concepto not in ({%=string(#SOURCE:helper-mess/rows/row/@oi_concepto) %}) %} {% 1 = 1 %} %}
			
			')/ROWS/ROW
				</qry:xquery>
				<qry:out>
					<qry:element name="ROW">
						<qry:attribute name="id" value="$r/@oi_concepto" type="Nomad.NSystem.Int"/>
						<qry:attribute name="value" value="$r/@oi_concepto" type="Nomad.NSystem.Int"/>
						<qry:attribute name="code" value="$r/@c_concepto" type="Nomad.NSystem.String"/>
						<qry:attribute name="text" value="$r/@d_concepto" type="Nomad.NSystem.String"/>
						<qry:attribute name="check" value="0" type="Nomad.NSystem.Boolean"/>
					</qry:element>
				</qry:out>
			</qry:select>
		</qry:define>
		<qry:define declare="&lt;ROWS&gt;&#13;&#10;&#9;&lt;ROW check=&quot;0&quot; text=&quot;ASIGNACIONES FAMILIARES HIJOS&quot; code=&quot;90251001&quot; value=&quot;50&quot; id=&quot;50&quot;/&gt;&#13;&#10;&#9;&lt;ROW check=&quot;0&quot; text=&quot;VACACIONES NO GOZADAS&quot; code=&quot;90000056&quot; value=&quot;56&quot; id=&quot;56&quot;/&gt;&#13;&#10;&#9;&lt;ROW check=&quot;0&quot; text=&quot;VALES ALIMENTARIOS&quot; code=&quot;90000060&quot; value=&quot;60&quot; id=&quot;60&quot;/&gt;&#13;&#10;&#9;&lt;ROW check=&quot;0&quot; text=&quot;ASIG. HIJO/S&quot; code=&quot;90000303&quot; value=&quot;303&quot; id=&quot;303&quot;/&gt;&#13;&#10;&#9;&lt;ROW check=&quot;0&quot; text=&quot;AYUDA ESCOLAR&quot; code=&quot;90000310&quot; value=&quot;310&quot; id=&quot;310&quot;/&gt;&#13;&#10;&#9;&lt;ROW check=&quot;0&quot; text=&quot;ASIG. PRENATAL&quot; code=&quot;90000311&quot; value=&quot;311&quot; id=&quot;311&quot;/&gt;&#13;&#10;&#9;&lt;ROW check=&quot;0&quot; text=&quot;ASIGNACION POR MATERNIDAD N/R&quot; code=&quot;90000452&quot; value=&quot;452&quot; id=&quot;452&quot;/&gt;&#13;&#10;&#9;&lt;ROW check=&quot;0&quot; text=&quot;ASIG. P/ MATERNIDAD&quot; code=&quot;90000454&quot; value=&quot;454&quot; id=&quot;454&quot;/&gt;&#13;&#10;&#9;&lt;ROW check=&quot;0&quot; text=&quot;AJUSTE A CONCEPTO 311&quot; code=&quot;90000489&quot; value=&quot;489&quot; id=&quot;489&quot;/&gt;&#13;&#10;&#9;&lt;ROW check=&quot;0&quot; text=&quot;IMPUESTO A LAS GANANCIAS&quot; code=&quot;90000602&quot; value=&quot;602&quot; id=&quot;602&quot;/&gt;&#13;&#10;&#9;&lt;ROW check=&quot;0&quot; text=&quot;LEY 19518-APORTE PERSONAL&quot; code=&quot;90000604&quot; value=&quot;604&quot; id=&quot;604&quot;/&gt;&#13;&#10;&#9;&lt;ROW check=&quot;0&quot; text=&quot;EMBARGO HABERES&quot; code=&quot;90000622&quot; value=&quot;622&quot; id=&quot;622&quot;/&gt;&#13;&#10;&#9;&lt;ROW check=&quot;0&quot; text=&quot;LEY 19518-AP. FAM. PADRES&quot; code=&quot;90000639&quot; value=&quot;639&quot; id=&quot;639&quot;/&gt;&#13;&#10;&#9;&lt;ROW check=&quot;0&quot; text=&quot;AJ.A&amp;#241;O ANT. IMP. GANANC.&quot; code=&quot;90000800&quot; value=&quot;800&quot; id=&quot;800&quot;/&gt;&#13;&#10;&#9;&lt;ROW check=&quot;0&quot; text=&quot;CONTRIBUCION S.I.J.P&quot; code=&quot;90000990&quot; value=&quot;990&quot; id=&quot;990&quot;/&gt;&#13;&#10;&#9;&lt;ROW check=&quot;0&quot; text=&quot;CONTRIBUCION OBRA SOCIAL&quot; code=&quot;90000991&quot; value=&quot;991&quot; id=&quot;991&quot;/&gt;&#13;&#10;&#9;&lt;ROW check=&quot;0&quot; text=&quot;CONTR. LEY 19032 PATR. 02%&quot; code=&quot;90000992&quot; value=&quot;992&quot; id=&quot;992&quot;/&gt;&#13;&#10;&#9;&lt;ROW check=&quot;0&quot; text=&quot;CONTRIBUCION ASIGNACION FAMILIAR&quot; code=&quot;90000993&quot; value=&quot;993&quot; id=&quot;993&quot;/&gt;&#13;&#10;&#9;&lt;ROW check=&quot;0&quot; text=&quot;CONTRIBUCION FONDO NACIONAL DE EMPLEO&quot; code=&quot;90000994&quot; value=&quot;994&quot; id=&quot;994&quot;/&gt;&#13;&#10;&#9;&lt;ROW check=&quot;0&quot; text=&quot;CONTRIBUCION LEY 5110&quot; code=&quot;90000995&quot; value=&quot;995&quot; id=&quot;995&quot;/&gt;&#13;&#10;&#9;&lt;ROW check=&quot;0&quot; text=&quot;CONTRIBUCION IMP. PCIA. TUCUMAN&quot; code=&quot;90000996&quot; value=&quot;996&quot; id=&quot;996&quot;/&gt;&#13;&#10;&#9;&lt;ROW check=&quot;0&quot; text=&quot;ANSSAL&quot; code=&quot;90000997&quot; value=&quot;997&quot; id=&quot;997&quot;/&gt;&#13;&#10;&#9;&lt;ROW check=&quot;0&quot; text=&quot;Inicializacion variab.&quot; code=&quot;90001000&quot; value=&quot;1000&quot; id=&quot;1000&quot;/&gt;&#13;&#10;&#9;&lt;ROW check=&quot;0&quot; text=&quot;Validar Contratos&quot; code=&quot;90003000&quot; value=&quot;3000&quot; id=&quot;3000&quot;/&gt;&#13;&#10;&#9;&lt;ROW check=&quot;0&quot; text=&quot;Calculo de Edad&quot; code=&quot;90010000&quot; value=&quot;10000&quot; id=&quot;10000&quot;/&gt;&#13;&#10;&#9;&lt;ROW check=&quot;0&quot; text=&quot;Calculo art&quot; code=&quot;90020000&quot; value=&quot;20000&quot; id=&quot;20000&quot;/&gt;&#13;&#10;&#9;&lt;ROW check=&quot;0&quot; text=&quot;Cal. Dias Acc Empresa&quot; code=&quot;90021000&quot; value=&quot;21000&quot; id=&quot;21000&quot;/&gt;&#13;&#10;&#9;&lt;ROW check=&quot;0&quot; text=&quot;Cal. Dias Acc ART&quot; code=&quot;90022000&quot; value=&quot;22000&quot; id=&quot;22000&quot;/&gt;&#13;&#10;&#9;&lt;ROW check=&quot;0&quot; text=&quot;Cal. Sal fam ART&quot; code=&quot;90023000&quot; value=&quot;23000&quot; id=&quot;23000&quot;/&gt;&#13;&#10;&#9;&lt;ROW check=&quot;0&quot; text=&quot;Obtengo Bases p/ART&quot; code=&quot;90025000&quot; value=&quot;25000&quot; id=&quot;25000&quot;/&gt;&#13;&#10;&#9;&lt;ROW check=&quot;0&quot; text=&quot;Variable de Egresos&quot; code=&quot;90030000&quot; value=&quot;30000&quot; id=&quot;30000&quot;/&gt;&#13;&#10;&#9;&lt;ROW check=&quot;0&quot; text=&quot;Guardo Ac.de I.G A/An&quot; code=&quot;90040000&quot; value=&quot;40000&quot; id=&quot;40000&quot;/&gt;&#13;&#10;&#9;&lt;ROW check=&quot;0&quot; text=&quot;Calc. dias inas y sem.&quot; code=&quot;90050000&quot; value=&quot;50000&quot; id=&quot;50000&quot;/&gt;&#13;&#10;&#9;&lt;ROW check=&quot;0&quot; text=&quot;CALCULO ANTIGUEDAD menos para AI&quot; code=&quot;90060000&quot; value=&quot;60000&quot; id=&quot;60000&quot;/&gt;&#13;&#10;&#9;&lt;ROW check=&quot;0&quot; text=&quot;Calc.Vaca.Pag/Adel&quot; code=&quot;90065000&quot; value=&quot;65000&quot; id=&quot;65000&quot;/&gt;&#13;&#10;&#9;&lt;ROW check=&quot;0&quot; text=&quot;D&amp;#237;as de Licencia de Maternidad&quot; code=&quot;90070000&quot; value=&quot;70000&quot; id=&quot;70000&quot;/&gt;&#13;&#10;&#9;&lt;ROW check=&quot;0&quot; text=&quot;D&amp;#237;as de Exedencia&quot; code=&quot;90075000&quot; value=&quot;75000&quot; id=&quot;75000&quot;/&gt;&#13;&#10;&#9;&lt;ROW check=&quot;0&quot; text=&quot;Validacion de Prenatal&quot; code=&quot;90080000&quot; value=&quot;80000&quot; id=&quot;80000&quot;/&gt;&#13;&#10;&#9;&lt;ROW check=&quot;0&quot; text=&quot;D&amp;#237;as de Licencia sin Goce Haberes&quot; code=&quot;90085000&quot; value=&quot;85000&quot; id=&quot;85000&quot;/&gt;&#13;&#10;&#9;&lt;ROW check=&quot;0&quot; text=&quot;D&amp;#237;as de Licencia con Reserva Puesto&quot; code=&quot;90087000&quot; value=&quot;87000&quot; id=&quot;87000&quot;/&gt;&#13;&#10;&#9;&lt;ROW check=&quot;0&quot; text=&quot;Inicializ. p/familiar&quot; code=&quot;90099000&quot; value=&quot;99000&quot; id=&quot;99000&quot;/&gt;&#13;&#10;&#9;&lt;ROW check=&quot;0&quot; text=&quot;C#ulo Familiares&quot; code=&quot;90251000&quot; value=&quot;100000&quot; id=&quot;100000&quot;/&gt;&#13;&#10;&#9;&lt;ROW check=&quot;0&quot; text=&quot;Comp.Calculo Fliares&quot; code=&quot;90252000&quot; value=&quot;101000&quot; id=&quot;101000&quot;/&gt;&#13;&#10;&#9;&lt;ROW check=&quot;0&quot; text=&quot;LOCALIDADES&quot; code=&quot;90253000&quot; value=&quot;103000&quot; id=&quot;103000&quot;/&gt;&#13;&#10;&#9;&lt;ROW check=&quot;0&quot; text=&quot;C&amp;#225;lculo Promedio Sujetos a Retenci&amp;#243;n para Asignaciones Familiares&quot; code=&quot;90250000&quot; value=&quot;250000&quot; id=&quot;250000&quot;/&gt;&#13;&#10;&#9;&lt;ROW check=&quot;0&quot; text=&quot;Calculo dias Vacaciones&quot; code=&quot;90400000&quot; value=&quot;400000&quot; id=&quot;400000&quot;/&gt;&#13;&#10;&#9;&lt;ROW check=&quot;0&quot; text=&quot;Base para Ds Licencia&quot; code=&quot;90490000&quot; value=&quot;490000&quot; id=&quot;490000&quot;/&gt;&#13;&#10;&#9;&lt;ROW check=&quot;0&quot; text=&quot;Definicion de Variables&quot; code=&quot;90999000&quot; value=&quot;999000&quot; id=&quot;999000&quot;/&gt;&#13;&#10;&#9;&lt;ROW check=&quot;0&quot; text=&quot;Bases Horaria y Diaria&quot; code=&quot;92410000&quot; value=&quot;2410000&quot; id=&quot;2410000&quot;/&gt;&#13;&#10;&#9;&lt;ROW check=&quot;0&quot; text=&quot;Vacaciones&quot; code=&quot;93000000&quot; value=&quot;3000000&quot; id=&quot;3000000&quot;/&gt;&#13;&#10;&#9;&lt;ROW check=&quot;0&quot; text=&quot;S.A.C&quot; code=&quot;94000000&quot; value=&quot;4000000&quot; id=&quot;4000000&quot;/&gt;&#13;&#10;&#9;&lt;ROW check=&quot;0&quot; text=&quot;Ajuste S.A.C.&quot; code=&quot;94005000&quot; value=&quot;4005000&quot; id=&quot;4005000&quot;/&gt;&#13;&#10;&#9;&lt;ROW check=&quot;0&quot; text=&quot;Calcula mejor Fijo p/egre&quot; code=&quot;94008000&quot; value=&quot;4008000&quot; id=&quot;4008000&quot;/&gt;&#13;&#10;&#9;&lt;ROW check=&quot;0&quot; text=&quot;Vacaciones no Gozadas&quot; code=&quot;94010000&quot; value=&quot;4010000&quot; id=&quot;4010000&quot;/&gt;&#13;&#10;&#9;&lt;ROW check=&quot;0&quot; text=&quot;SAC  Vacac. no Gozadas&quot; code=&quot;94015000&quot; value=&quot;4015000&quot; id=&quot;4015000&quot;/&gt;&#13;&#10;&#9;&lt;ROW check=&quot;0&quot; text=&quot;Indemn. Integ.Mes Desp&quot; code=&quot;94020000&quot; value=&quot;4020000&quot; id=&quot;4020000&quot;/&gt;&#13;&#10;&#9;&lt;ROW check=&quot;0&quot; text=&quot;SAC Perfodo Integrac.D&quot; code=&quot;94025000&quot; value=&quot;4025000&quot; id=&quot;4025000&quot;/&gt;&#13;&#10;&#9;&lt;ROW check=&quot;0&quot; text=&quot;Indem. Sust. Preaviso&quot; code=&quot;94030000&quot; value=&quot;4030000&quot; id=&quot;4030000&quot;/&gt;&#13;&#10;&#9;&lt;ROW check=&quot;0&quot; text=&quot;SAC Indem.Sust.Preavis&quot; code=&quot;94035000&quot; value=&quot;4035000&quot; id=&quot;4035000&quot;/&gt;&#13;&#10;&#9;&lt;ROW check=&quot;0&quot; text=&quot;Indemn. art.183 L.C.T.&quot; code=&quot;94060000&quot; value=&quot;4060000&quot; id=&quot;4060000&quot;/&gt;&#13;&#10;&#9;&lt;ROW check=&quot;0&quot; text=&quot;Indem p/antig c/tope&quot; code=&quot;94070000&quot; value=&quot;4070000&quot; id=&quot;4070000&quot;/&gt;&#13;&#10;&#9;&lt;ROW check=&quot;0&quot; text=&quot;Indemniz.Antig s/Tope&quot; code=&quot;94075000&quot; value=&quot;4075000&quot; id=&quot;4075000&quot;/&gt;&#13;&#10;&#9;&lt;ROW check=&quot;0&quot; text=&quot;Ind.por Fallecimiento&quot; code=&quot;94080000&quot; value=&quot;4080000&quot; id=&quot;4080000&quot;/&gt;&#13;&#10;&#9;&lt;ROW check=&quot;0&quot; text=&quot;Indemn.por Incapacidad&quot; code=&quot;94085000&quot; value=&quot;4085000&quot; id=&quot;4085000&quot;/&gt;&#13;&#10;&#9;&lt;ROW check=&quot;0&quot; text=&quot;Ind.Esp 1 ART43 L12908&quot; code=&quot;94097000&quot; value=&quot;4097000&quot; id=&quot;4097000&quot;/&gt;&#13;&#10;&#9;&lt;ROW check=&quot;0&quot; text=&quot;Ind.Esp 2 ART46 L12908&quot; code=&quot;94099000&quot; value=&quot;4099000&quot; id=&quot;4099000&quot;/&gt;&#13;&#10;&#9;&lt;ROW check=&quot;0&quot; text=&quot;Indem por Casamiento&quot; code=&quot;94100000&quot; value=&quot;4100000&quot; id=&quot;4100000&quot;/&gt;&#13;&#10;&#9;&lt;ROW check=&quot;0&quot; text=&quot;Ind.Legal post.Mat.&quot; code=&quot;94110000&quot; value=&quot;4110000&quot; id=&quot;4110000&quot;/&gt;&#13;&#10;&#9;&lt;ROW check=&quot;0&quot; text=&quot;Grat Art 7 ley 24241&quot; code=&quot;94150000&quot; value=&quot;4150000&quot; id=&quot;4150000&quot;/&gt;&#13;&#10;&#9;&lt;ROW check=&quot;0&quot; text=&quot;Calculo art&quot; code=&quot;94170000&quot; value=&quot;4170000&quot; id=&quot;4170000&quot;/&gt;&#13;&#10;&#9;&lt;ROW check=&quot;0&quot; text=&quot;Calculo Asignaciones Familiares&quot; code=&quot;94390000&quot; value=&quot;4390000&quot; id=&quot;4390000&quot;/&gt;&#13;&#10;&#9;&lt;ROW check=&quot;0&quot; text=&quot;Complemento Sueldo NR&quot; code=&quot;94400000&quot; value=&quot;4400000&quot; id=&quot;4400000&quot;/&gt;&#13;&#10;&#9;&lt;ROW check=&quot;0&quot; text=&quot;Hijos&quot; code=&quot;94405000&quot; value=&quot;4405000&quot; id=&quot;4405000&quot;/&gt;&#13;&#10;&#9;&lt;ROW check=&quot;0&quot; text=&quot;Hijo a cargo Art&quot; code=&quot;94420000&quot; value=&quot;4420000&quot; id=&quot;4420000&quot;/&gt;&#13;&#10;&#9;&lt;ROW check=&quot;0&quot; text=&quot;Salario Prenatal&quot; code=&quot;94430000&quot; value=&quot;4430000&quot; id=&quot;4430000&quot;/&gt;&#13;&#10;&#9;&lt;ROW check=&quot;0&quot; text=&quot;Retroactivo. Prenatal&quot; code=&quot;94435000&quot; value=&quot;4435000&quot; id=&quot;4435000&quot;/&gt;&#13;&#10;&#9;&lt;ROW check=&quot;0&quot; text=&quot;Prenatal A Cargo ART&quot; code=&quot;94440000&quot; value=&quot;4440000&quot; id=&quot;4440000&quot;/&gt;&#13;&#10;&#9;&lt;ROW check=&quot;0&quot; text=&quot;Hijo Incapacitado&quot; code=&quot;94450000&quot; value=&quot;4450000&quot; id=&quot;4450000&quot;/&gt;&#13;&#10;&#9;&lt;ROW check=&quot;0&quot; text=&quot;Hijo Incap a cargo art&quot; code=&quot;94470000&quot; value=&quot;4470000&quot; id=&quot;4470000&quot;/&gt;&#13;&#10;&#9;&lt;ROW check=&quot;0&quot; text=&quot;Ay Escolar&quot; code=&quot;94480000&quot; value=&quot;4480000&quot; id=&quot;4480000&quot;/&gt;&#13;&#10;&#9;&lt;ROW check=&quot;0&quot; text=&quot;Ay.Esc.Discapa.&quot; code=&quot;94485000&quot; value=&quot;4485000&quot; id=&quot;4485000&quot;/&gt;&#13;&#10;&#9;&lt;ROW check=&quot;0&quot; text=&quot;Ay Escolar a cargo ART&quot; code=&quot;94490000&quot; value=&quot;4490000&quot; id=&quot;4490000&quot;/&gt;&#13;&#10;&#9;&lt;ROW check=&quot;0&quot; text=&quot;Ay.Esc.Disc.a cargoART&quot; code=&quot;94495000&quot; value=&quot;4495000&quot; id=&quot;4495000&quot;/&gt;&#13;&#10;&#9;&lt;ROW check=&quot;0&quot; text=&quot;Lic. por Maternidad&quot; code=&quot;94505000&quot; value=&quot;4505000&quot; id=&quot;4505000&quot;/&gt;&#13;&#10;&#9;&lt;ROW check=&quot;0&quot; text=&quot;Ticket Canasta&quot; code=&quot;94600000&quot; value=&quot;4600000&quot; id=&quot;4600000&quot;/&gt;&#13;&#10;&#9;&lt;ROW check=&quot;0&quot; text=&quot;Ajuste Tickets&quot; code=&quot;94605000&quot; value=&quot;4605000&quot; id=&quot;4605000&quot;/&gt;&#13;&#10;&#9;&lt;ROW check=&quot;0&quot; text=&quot;Ticket Restaurant&quot; code=&quot;94610000&quot; value=&quot;4610000&quot; id=&quot;4610000&quot;/&gt;&#13;&#10;&#9;&lt;ROW check=&quot;0&quot; text=&quot;Base p/Aportes y Cont.&quot; code=&quot;94999000&quot; value=&quot;4999000&quot; id=&quot;4999000&quot;/&gt;&#13;&#10;&#9;&lt;ROW check=&quot;0&quot; text=&quot;Base para Sindicato&quot; code=&quot;95560000&quot; value=&quot;5560000&quot; id=&quot;5560000&quot;/&gt;&#13;&#10;&#9;&lt;ROW check=&quot;0&quot; text=&quot;C&amp;#225;lculo del total IG&quot; code=&quot;95600000&quot; value=&quot;5600000&quot; id=&quot;5600000&quot;/&gt;&#13;&#10;&#9;&lt;ROW check=&quot;0&quot; text=&quot;Importe Bruto Ganancia&quot; code=&quot;95603000&quot; value=&quot;5603000&quot; id=&quot;5603000&quot;/&gt;&#13;&#10;&#9;&lt;ROW check=&quot;0&quot; text=&quot;Calculo Neto Trab.Ant.&quot; code=&quot;95604000&quot; value=&quot;5604000&quot; id=&quot;5604000&quot;/&gt;&#13;&#10;&#9;&lt;ROW check=&quot;0&quot; text=&quot;Ded. Ganan. No Impon.&quot; code=&quot;95605000&quot; value=&quot;5605000&quot; id=&quot;5605000&quot;/&gt;&#13;&#10;&#9;&lt;ROW check=&quot;0&quot; text=&quot;Calc.Tot.Rubro 1&quot; code=&quot;95606000&quot; value=&quot;5606000&quot; id=&quot;5606000&quot;/&gt;&#13;&#10;&#9;&lt;ROW check=&quot;0&quot; text=&quot;Deduccion Jubilacion&quot; code=&quot;95608000&quot; value=&quot;5608000&quot; id=&quot;5608000&quot;/&gt;&#13;&#10;&#9;&lt;ROW check=&quot;0&quot; text=&quot;Ded.IG Primas Seguro&quot; code=&quot;95615000&quot; value=&quot;5615000&quot; id=&quot;5615000&quot;/&gt;&#13;&#10;&#9;&lt;ROW check=&quot;0&quot; text=&quot;Deduccion Seguro&quot; code=&quot;95616000&quot; value=&quot;5616000&quot; id=&quot;5616000&quot;/&gt;&#13;&#10;&#9;&lt;ROW check=&quot;0&quot; text=&quot;Ded. IG Sepelio&quot; code=&quot;95620000&quot; value=&quot;5620000&quot; id=&quot;5620000&quot;/&gt;&#13;&#10;&#9;&lt;ROW check=&quot;0&quot; text=&quot;Deduccion Sepelio&quot; code=&quot;95621000&quot; value=&quot;5621000&quot; id=&quot;5621000&quot;/&gt;&#13;&#10;&#9;&lt;ROW check=&quot;0&quot; text=&quot;Deduc Aporte Voluntari&quot; code=&quot;95624000&quot; value=&quot;5624000&quot; id=&quot;5624000&quot;/&gt;&#13;&#10;&#9;&lt;ROW check=&quot;0&quot; text=&quot;Deduc Plan Retiro Priv&quot; code=&quot;95625000&quot; value=&quot;5625000&quot; id=&quot;5625000&quot;/&gt;&#13;&#10;&#9;&lt;ROW check=&quot;0&quot; text=&quot;Otras Ded.&quot; code=&quot;95626000&quot; value=&quot;5626000&quot; id=&quot;5626000&quot;/&gt;&#13;&#10;&#9;&lt;ROW check=&quot;0&quot; text=&quot;Ded.IG Cuota Med-Asis.&quot; code=&quot;95627000&quot; value=&quot;5627000&quot; id=&quot;5627000&quot;/&gt;&#13;&#10;&#9;&lt;ROW check=&quot;0&quot; text=&quot;Tope Gcia No Imponible&quot; code=&quot;95628000&quot; value=&quot;5628000&quot; id=&quot;5628000&quot;/&gt;&#13;&#10;&#9;&lt;ROW check=&quot;0&quot; text=&quot;Total ded O.Social&quot; code=&quot;95629000&quot; value=&quot;5629000&quot; id=&quot;5629000&quot;/&gt;&#13;&#10;&#9;&lt;ROW check=&quot;0&quot; text=&quot;Ded. IG Donaciones&quot; code=&quot;95630000&quot; value=&quot;5630000&quot; id=&quot;5630000&quot;/&gt;&#13;&#10;&#9;&lt;ROW check=&quot;0&quot; text=&quot;Donaciones&quot; code=&quot;95631000&quot; value=&quot;5631000&quot; id=&quot;5631000&quot;/&gt;&#13;&#10;&#9;&lt;ROW check=&quot;0&quot; text=&quot;Ded. Gcia No Imponible&quot; code=&quot;95632000&quot; value=&quot;5632000&quot; id=&quot;5632000&quot;/&gt;&#13;&#10;&#9;&lt;ROW check=&quot;0&quot; text=&quot;Ded Especial Gcias&quot; code=&quot;95633000&quot; value=&quot;5633000&quot; id=&quot;5633000&quot;/&gt;&#13;&#10;&#9;&lt;ROW check=&quot;0&quot; text=&quot;Ded. IG Esposa&quot; code=&quot;95635000&quot; value=&quot;5635000&quot; id=&quot;5635000&quot;/&gt;&#13;&#10;&#9;&lt;ROW check=&quot;0&quot; text=&quot;Ded. IG Hijos&quot; code=&quot;95636000&quot; value=&quot;5636000&quot; id=&quot;5636000&quot;/&gt;&#13;&#10;&#9;&lt;ROW check=&quot;0&quot; text=&quot;Ded.de Fliares a Cargo&quot; code=&quot;95637000&quot; value=&quot;5637000&quot; id=&quot;5637000&quot;/&gt;&#13;&#10;&#9;&lt;ROW check=&quot;0&quot; text=&quot;Busqueda del Rango&quot; code=&quot;95655000&quot; value=&quot;5655000&quot; id=&quot;5655000&quot;/&gt;&#13;&#10;&#9;&lt;ROW check=&quot;0&quot; text=&quot;Retenc.del Periodo Fis&quot; code=&quot;95656000&quot; value=&quot;5656000&quot; id=&quot;5656000&quot;/&gt;&#13;&#10;&#9;&lt;ROW check=&quot;0&quot; text=&quot;Total del Rubro 9&quot; code=&quot;95658000&quot; value=&quot;5658000&quot; id=&quot;5658000&quot;/&gt;&#13;&#10;&#9;&lt;ROW check=&quot;0&quot; text=&quot;Saldo del Impuesto&quot; code=&quot;95659000&quot; value=&quot;5659000&quot; id=&quot;5659000&quot;/&gt;&#13;&#10;&#9;&lt;ROW check=&quot;0&quot; text=&quot;Retenc. Imp. Ganancias&quot; code=&quot;95660000&quot; value=&quot;5660000&quot; id=&quot;5660000&quot;/&gt;&#13;&#10;&#9;&lt;ROW check=&quot;0&quot; text=&quot;A Favor D.G.I&quot; code=&quot;95661000&quot; value=&quot;5661000&quot; id=&quot;5661000&quot;/&gt;&#13;&#10;&#9;&lt;ROW check=&quot;0&quot; text=&quot;Dev. Imp.Ganancias&quot; code=&quot;95665000&quot; value=&quot;5665000&quot; id=&quot;5665000&quot;/&gt;&#13;&#10;&#9;&lt;ROW check=&quot;0&quot; text=&quot;A Favor Beneficiario&quot; code=&quot;95666000&quot; value=&quot;5666000&quot; id=&quot;5666000&quot;/&gt;&#13;&#10;&#9;&lt;ROW check=&quot;0&quot; text=&quot;Total Rubro 2&quot; code=&quot;95670000&quot; value=&quot;5670000&quot; id=&quot;5670000&quot;/&gt;&#13;&#10;&#9;&lt;ROW check=&quot;0&quot; text=&quot;Resultado Neto&quot; code=&quot;95675000&quot; value=&quot;5675000&quot; id=&quot;5675000&quot;/&gt;&#13;&#10;&#9;&lt;ROW check=&quot;0&quot; text=&quot;Diferencia&quot; code=&quot;95680000&quot; value=&quot;5680000&quot; id=&quot;5680000&quot;/&gt;&#13;&#10;&#9;&lt;ROW check=&quot;0&quot; text=&quot;Total Rubro 6&quot; code=&quot;95685000&quot; value=&quot;5685000&quot; id=&quot;5685000&quot;/&gt;&#13;&#10;&#9;&lt;ROW check=&quot;0&quot; text=&quot;Gcia Neta Suj.Imp&quot; code=&quot;95689000&quot; value=&quot;5689000&quot; id=&quot;5689000&quot;/&gt;&#13;&#10;&#9;&lt;ROW check=&quot;0&quot; text=&quot;Gcia.Neta Sujeta Imp&quot; code=&quot;95690000&quot; value=&quot;5690000&quot; id=&quot;5690000&quot;/&gt;&#13;&#10;&#9;&lt;ROW check=&quot;0&quot; text=&quot;Ret.Imp.Gcias A/A&quot; code=&quot;95700000&quot; value=&quot;5700000&quot; id=&quot;5700000&quot;/&gt;&#13;&#10;&#9;&lt;ROW check=&quot;0&quot; text=&quot;Importe Bruto Gcia A/A&quot; code=&quot;95703000&quot; value=&quot;5703000&quot; id=&quot;5703000&quot;/&gt;&#13;&#10;&#9;&lt;ROW check=&quot;0&quot; text=&quot;CalcNeto Trab.Ant. A/A&quot; code=&quot;95704000&quot; value=&quot;5704000&quot; id=&quot;5704000&quot;/&gt;&#13;&#10;&#9;&lt;ROW check=&quot;0&quot; text=&quot;Ded.Ganan No Impon.A/A&quot; code=&quot;95705000&quot; value=&quot;5705000&quot; id=&quot;5705000&quot;/&gt;&#13;&#10;&#9;&lt;ROW check=&quot;0&quot; text=&quot;Calc.Total Rubro 1 A/A&quot; code=&quot;95706000&quot; value=&quot;5706000&quot; id=&quot;5706000&quot;/&gt;&#13;&#10;&#9;&lt;ROW check=&quot;0&quot; text=&quot;Ded. Jubilacion A/A&quot; code=&quot;95708000&quot; value=&quot;5708000&quot; id=&quot;5708000&quot;/&gt;&#13;&#10;&#9;&lt;ROW check=&quot;0&quot; text=&quot;Ded. Especial IG A/A&quot; code=&quot;95710000&quot; value=&quot;5710000&quot; id=&quot;5710000&quot;/&gt;&#13;&#10;&#9;&lt;ROW check=&quot;0&quot; text=&quot;Ded.Cuota Med-Asis.A/A&quot; code=&quot;95711000&quot; value=&quot;5711000&quot; id=&quot;5711000&quot;/&gt;&#13;&#10;&#9;&lt;ROW check=&quot;0&quot; text=&quot;Total ded.O.Social A/A&quot; code=&quot;95712000&quot; value=&quot;5712000&quot; id=&quot;5712000&quot;/&gt;&#13;&#10;&#9;&lt;ROW check=&quot;0&quot; text=&quot;Ded. Primas Seguro A/A&quot; code=&quot;95715000&quot; value=&quot;5715000&quot; id=&quot;5715000&quot;/&gt;&#13;&#10;&#9;&lt;ROW check=&quot;0&quot; text=&quot;Ded. Seguro A/A&quot; code=&quot;95716000&quot; value=&quot;5716000&quot; id=&quot;5716000&quot;/&gt;&#13;&#10;&#9;&lt;ROW check=&quot;0&quot; text=&quot;Ded. IG Sepelio A/A&quot; code=&quot;95720000&quot; value=&quot;5720000&quot; id=&quot;5720000&quot;/&gt;&#13;&#10;&#9;&lt;ROW check=&quot;0&quot; text=&quot;Ded. Sepelio A/A&quot; code=&quot;95721000&quot; value=&quot;5721000&quot; id=&quot;5721000&quot;/&gt;&#13;&#10;&#9;&lt;ROW check=&quot;0&quot; text=&quot;Ded. Aporte Vol.A/A&quot; code=&quot;95724000&quot; value=&quot;5724000&quot; id=&quot;5724000&quot;/&gt;&#13;&#10;&#9;&lt;ROW check=&quot;0&quot; text=&quot;Ded.Plan Retiro Pr A/A&quot; code=&quot;95725000&quot; value=&quot;5725000&quot; id=&quot;5725000&quot;/&gt;&#13;&#10;&#9;&lt;ROW check=&quot;0&quot; text=&quot;Otras Ded. A/A&quot; code=&quot;95726000&quot; value=&quot;5726000&quot; id=&quot;5726000&quot;/&gt;&#13;&#10;&#9;&lt;ROW check=&quot;0&quot; text=&quot;Ded. IG Donaciones&quot; code=&quot;95730000&quot; value=&quot;5730000&quot; id=&quot;5730000&quot;/&gt;&#13;&#10;&#9;&lt;ROW check=&quot;0&quot; text=&quot;Donaciones A/A&quot; code=&quot;95731000&quot; value=&quot;5731000&quot; id=&quot;5731000&quot;/&gt;&#13;&#10;&#9;&lt;ROW check=&quot;0&quot; text=&quot;Ded. IG Esposa A/A&quot; code=&quot;95735000&quot; value=&quot;5735000&quot; id=&quot;5735000&quot;/&gt;&#13;&#10;&#9;&lt;ROW check=&quot;0&quot; text=&quot;Ded. IG Hijos A/A&quot; code=&quot;95736000&quot; value=&quot;5736000&quot; id=&quot;5736000&quot;/&gt;&#13;&#10;&#9;&lt;ROW check=&quot;0&quot; text=&quot;Ded.Fliares  Cargo A/A&quot; code=&quot;95737000&quot; value=&quot;5737000&quot; id=&quot;5737000&quot;/&gt;&#13;&#10;&#9;&lt;ROW check=&quot;0&quot; text=&quot;Busqueda del Rango A/A&quot; code=&quot;95755000&quot; value=&quot;5755000&quot; id=&quot;5755000&quot;/&gt;&#13;&#10;&#9;&lt;ROW check=&quot;0&quot; text=&quot;Ret. Perio. Fis A/A&quot; code=&quot;95756000&quot; value=&quot;5756000&quot; id=&quot;5756000&quot;/&gt;&#13;&#10;&#9;&lt;ROW check=&quot;0&quot; text=&quot;Total del Rubro 9 A/A&quot; code=&quot;95758000&quot; value=&quot;5758000&quot; id=&quot;5758000&quot;/&gt;&#13;&#10;&#9;&lt;ROW check=&quot;0&quot; text=&quot;Saldo del Impuesto A/A&quot; code=&quot;95759000&quot; value=&quot;5759000&quot; id=&quot;5759000&quot;/&gt;&#13;&#10;&#9;&lt;ROW check=&quot;0&quot; text=&quot;Ret. Imp.Ganancias A/A&quot; code=&quot;95760000&quot; value=&quot;5760000&quot; id=&quot;5760000&quot;/&gt;&#13;&#10;&#9;&lt;ROW check=&quot;0&quot; text=&quot;A Favor D.G.I&quot; code=&quot;95761000&quot; value=&quot;5761000&quot; id=&quot;5761000&quot;/&gt;&#13;&#10;&#9;&lt;ROW check=&quot;0&quot; text=&quot;Dev. Imp.Ganancias A/A&quot; code=&quot;95765000&quot; value=&quot;5765000&quot; id=&quot;5765000&quot;/&gt;&#13;&#10;&#9;&lt;ROW check=&quot;0&quot; text=&quot;A Favor Beneficiario&quot; code=&quot;95766000&quot; value=&quot;5766000&quot; id=&quot;5766000&quot;/&gt;&#13;&#10;&#9;&lt;ROW check=&quot;0&quot; text=&quot;Total Rubro 2 A/A&quot; code=&quot;95770000&quot; value=&quot;5770000&quot; id=&quot;5770000&quot;/&gt;&#13;&#10;&#9;&lt;ROW check=&quot;0&quot; text=&quot;Resultado Neto A/A&quot; code=&quot;95775000&quot; value=&quot;5775000&quot; id=&quot;5775000&quot;/&gt;&#13;&#10;&#9;&lt;ROW check=&quot;0&quot; text=&quot;AcuIGH - JUB - OS&quot; code=&quot;95776000&quot; value=&quot;5776000&quot; id=&quot;5776000&quot;/&gt;&#13;&#10;&#9;&lt;ROW check=&quot;0&quot; text=&quot;Diferencia A/A&quot; code=&quot;95780000&quot; value=&quot;5780000&quot; id=&quot;5780000&quot;/&gt;&#13;&#10;&#9;&lt;ROW check=&quot;0&quot; text=&quot;Total Rubro 6 A/A&quot; code=&quot;95785000&quot; value=&quot;5785000&quot; id=&quot;5785000&quot;/&gt;&#13;&#10;&#9;&lt;ROW check=&quot;0&quot; text=&quot;Gcia Neta Suj Imp A/A&quot; code=&quot;95789000&quot; value=&quot;5789000&quot; id=&quot;5789000&quot;/&gt;&#13;&#10;&#9;&lt;ROW check=&quot;0&quot; text=&quot;Gcia.Neta Suj. Imp A/A&quot; code=&quot;95790000&quot; value=&quot;5790000&quot; id=&quot;5790000&quot;/&gt;&#13;&#10;&#9;&lt;ROW check=&quot;0&quot; text=&quot;Calc.Porc.Reduccion&quot; code=&quot;97950000&quot; value=&quot;7950000&quot; id=&quot;7950000&quot;/&gt;&#13;&#10;&#9;&lt;ROW check=&quot;0&quot; text=&quot;Redondeo&quot; code=&quot;97990000&quot; value=&quot;7990000&quot; id=&quot;7990000&quot;/&gt;&#13;&#10;&#9;&lt;ROW check=&quot;0&quot; text=&quot;Base Imp.Jubilaci&amp;#243;n - Contribuci&amp;#243;n&quot; code=&quot;97992000&quot; value=&quot;7992000&quot; id=&quot;7992000&quot;/&gt;&#13;&#10;&#9;&lt;ROW check=&quot;0&quot; text=&quot;Actual. Var SAC&quot; code=&quot;93955000&quot; value=&quot;7992001&quot; id=&quot;7992001&quot;/&gt;&#13;&#10;&#9;&lt;ROW check=&quot;0&quot; text=&quot;C&amp;#225;lculo del Sueldo Conformado&quot; code=&quot;93900000&quot; value=&quot;7992002&quot; id=&quot;7992002&quot;/&gt;&#13;&#10;&#9;&lt;ROW check=&quot;0&quot; text=&quot;CONTRIBUCION VALES ALIMENT. LEY 24700&quot; code=&quot;90000986&quot; value=&quot;7992003&quot; id=&quot;7992003&quot;/&gt;&#13;&#10;&#9;&lt;ROW check=&quot;0&quot; text=&quot;LEY DE RIESGOS DEL TRABAJO&quot; code=&quot;90000987&quot; value=&quot;7992004&quot; id=&quot;7992004&quot;/&gt;&#13;&#10;&#9;&lt;ROW check=&quot;0&quot; text=&quot;FONDO ESPECIAL LEY 3270 CHUBUT&quot; code=&quot;90000988&quot; value=&quot;7992005&quot; id=&quot;7992005&