<flow:flow xmlns:flow="nomad_engine.flow" xmlns:doc="nomad_engine.doc" xmlns:qry="nomad_engine.qry" extends="NucleusRH.Base.Evaluacion.Evaluacion.Evaluacion_Consulta.flow" name="NucleusRH.Base.Evaluacion.Evaluacion.Evaluacion_Supervision.flow" default_action="initialize">
	<flow:info label="Flow para NucleusRH.Base.Evaluacion.Evaluacion"/>
	<flow:declare>
		<doc:define name="FILTERDATA">
			<DATOS oi_evento="" oi_evaluador="" mis_evaluados="1" c_estado="" oi_supervisor="0" ATRIB_ORDEN1="" ATRIB_ORDEN2="" ATRIB_ORDEN3="" ATRIB_ORDEN4="" ORDEN1="" ORDEN2="" ORDEN3="" ORDEN4="">
				<ROWS/>
			</DATOS>
		</doc:define>
		<doc:define name="ESCALAS"/>
		<qry:define declare="&lt;DATOS user=&quot;rmarra&quot; oi_personal_emp_user=&quot;&quot; oi_evento=&quot;13&quot; oi_evaluador=&quot;&quot; mis_evaluados=&quot;1&quot; c_estado=&quot;&quot; oi_supervisor=&quot;11442&quot; ATRIB_ORDEN1=&quot;&quot; ATRIB_ORDEN2=&quot;&quot; ATRIB_ORDEN3=&quot;&quot; ATRIB_ORDEN4=&quot;&quot; ORDEN1=&quot;&quot; ORDEN2=&quot;&quot; ORDEN3=&quot;&quot; ORDEN4=&quot;&quot; &gt;&lt;EVALUADOS /&gt;&lt;/DATOS&gt;" name="LIST">
			<qry:main maxdeep="2" doc="SOURCE">
				<qry:element name="ROWS">
					<qry:insert-select doc-path="#SOURCE:DATOS" name="sql1"/>
				</qry:element>
			</qry:main>
			<qry:select doc="SOURCE" name="sql1">
				<qry:xquery>
					for $r in sql('
			SELECT 
			EVA02_EVALUACION.oi_evaluacion, EVA02_EVALUACION.c_resultado,
			EVA02_EVALUACION.oi_personal_emp, EVA02_EVALUACION.oi_evento, 
			EVA02_EVALUACION.oi_evaluador, EVA01_EVENTOS.c_evento,
			PER02_PERSONAL_EMP.e_numero_legajo, PER01_PERSONAL.d_ape_y_nom,
			EVA02_EVALUACION.f_evaluacion, EVA02_EVALUACION.c_estado
			FROM 
			EVA02_EVALUACION, EVA01_EVENTOS, PER02_PERSONAL_EMP, PER01_PERSONAL
			JOIN
			EVA02_EVALUACION.oi_evento INNER EVA01_EVENTOS.oi_evento,
			EVA02_EVALUACION.oi_personal_emp INNER PER02_PERSONAL_EMP.oi_personal_emp,
			PER02_PERSONAL_EMP.oi_personal INNER PER01_PERSONAL.oi_personal
      WHERE
      EVA02_EVALUACION.oi_evento = {#SOURCE:@oi_evento}
			{%? (#SOURCE:@oi_personal_emp_user!='')	{% AND EVA02_EVALUACION.oi_evaluador = {#SOURCE:@oi_personal_emp_user} %} 
      		{% 
      			{%? (#SOURCE:@oi_evaluador!='')	{% AND EVA02_EVALUACION.oi_evaluador = {#SOURCE:@oi_evaluador} %} {% %} %}
      		%} %}     
      {%? (#SOURCE:@oi_supervisor!='')	{% AND EVA02_EVALUACION.oi_supervisor = {#SOURCE:@oi_supervisor} %} {% AND 1=2 %} %}
      {%? (#SOURCE:@c_estado!='')	{% AND EVA02_EVALUACION.c_estado= {#SOURCE:@c_estado} %} {% %} %}
      {%? (string(#SOURCE:ROWS/ROW/@id)!='') {% AND EVA02_EVALUACION.oi_personal_emp  in ({%=string(#SOURCE:ROWS/ROW/@id) %}) %} {%  %} %}
      ORDER BY
      {%? (#SOURCE:@ATRIB_ORDEN1!='')	{% {%=#SOURCE:@ATRIB_ORDEN1%} {%? (#SOURCE:@ORDEN1!='') {% {%=#SOURCE:@ORDEN1%}, %} {% ASC, %}	%} %} {% %} %}
			oi_evaluacion	ASC
	    ')/ROWS/ROW
				</qry:xquery>
				<qry:out>
					<qry:element name="ROW">
						<qry:attribute name="id" value="$r/@oi_evaluacion" type="Nomad.NSystem.Int"/>
						<qry:attribute name="c_resultado" value="$r/@c_resultado"/>
						<qry:attribute name="c_estado" value="$r/@c_estado"/>
						<qry:element name="oi_personal_emp">
							<qry:attribute name="value" value="$r/@oi_personal_emp"/>
							<qry:insert-select name="sql2" doc-path="."/>
						</qry:element>
						<qry:attribute name="oi_personal_emp_descr" value="./oi_personal_emp/@code+'-'+./oi_personal_emp/@text"/>
						<qry:element name="oi_evento">
							<qry:attribute name="value" value="$r/@oi_evento"/>
							<qry:insert-select name="sql3" doc-path="."/>
						</qry:element>
						<qry:attribute name="oi_evento_descr" value="./oi_evento/@code+'-'+./oi_evento/@text"/>
						<qry:element name="oi_evaluador">
							<qry:attribute name="value" value="$r/@oi_evaluador"/>
							<qry:insert-select name="sql4" doc-path="."/>
						</qry:element>
						<qry:attribute name="oi_evaluador_descr" value="./oi_evaluador/@code+'-'+./oi_evaluador/@text"/>
						<qry:insert-select doc-path="." name="SECURITY"/>
					</qry:element>
				</qry:out>
			</qry:select>
			<qry:select doc="PARAM" name="sql2">
				<qry:xquery>
					for $r in sql('
					SELECT PER02_PERSONAL_EMP.oi_personal_emp, PER02_PERSONAL_EMP.e_numero_legajo
					FROM PER02_PERSONAL_EMP 
					WHERE PER02_PERSONAL_EMP.oi_personal_emp={#PARAM:@value}')/ROWS/ROW
				</qry:xquery>
				<qry:out>
					<qry:attribute name="id" value="$r/@oi_personal_emp" type="Nomad.NSystem.Int"/>
					<qry:attribute name="e_numero_legajo" value="$r/@e_numero_legajo" type="Nomad.NSystem.Int"/>
					<qry:attribute name="code" value="$r/@e_numero_legajo" type="Nomad.NSystem.Int"/>
					<qry:insert-select doc-path="." name="FIND-PER-DESCR"/>
				</qry:out>
			</qry:select>
			<qry:select doc="PARAM" name="FIND-PER-DESCR">
				<qry:xquery>
					for $r in sql('
					SELECT PER02_PERSONAL_EMP.e_numero_legajo AS COD, PER01_PERSONAL.d_ape_y_nom AS DES 
					FROM 
					PER02_PERSONAL_EMP, PER01_PERSONAL
					JOIN
					PER02_PERSONAL_EMP.oi_personal INNER PER01_PERSONAL.oi_personal
					WHERE
					PER02_PERSONAL_EMP.oi_personal_emp = {#PARAM:@id}')/ROWS/ROW
				</qry:xquery>
				<qry:out>
					<qry:attribute value="'[' + $r/@COD + '] ' + $r/@DES" name="descr"/>
					<qry:attribute value="$r/@DES" name="text"/>
				</qry:out>
			</qry:select>
			<qry:select doc="PARAM" name="sql3">
				<qry:xquery>
					for $r in sql('
					SELECT EVA01_EVENTOS.oi_evento, EVA01_EVENTOS.c_evento, EVA01_EVENTOS.d_evento
					FROM EVA01_EVENTOS 
					WHERE EVA01_EVENTOS.oi_evento={#PARAM:@value}')/ROWS/ROW
				</qry:xquery>
				<qry:out>
					<qry:attribute name="id" value="$r/@oi_evento" type="Nomad.NSystem.Int"/>
					<qry:attribute name="c_evento" value="$r/@c_evento" type="Nomad.NSystem.String"/>
					<qry:attribute name="code" value="$r/@c_evento" type="Nomad.NSystem.String"/>
					<qry:attribute name="d_evento" value="$r/@d_evento" type="Nomad.NSystem.String"/>
					<qry:attribute name="text" value="$r/@d_evento" type="Nomad.NSystem.String"/>
				</qry:out>
			</qry:select>
			<qry:select doc="PARAM" name="sql4">
				<qry:xquery>
					for $r in sql('
					SELECT PER02_PERSONAL_EMP.oi_personal_emp, PER02_PERSONAL_EMP.e_numero_legajo
					FROM PER02_PERSONAL_EMP 
					WHERE PER02_PERSONAL_EMP.oi_personal_emp = {#PARAM:@value}')/ROWS/ROW
				</qry:xquery>
				<qry:out>
					<qry:attribute name="id" value="$r/@oi_personal_emp" type="Nomad.NSystem.Int"/>
					<qry:attribute name="e_numero_legajo" value="$r/@e_numero_legajo" type="Nomad.NSystem.Int"/>
					<qry:attribute name="code" value="$r/@e_numero_legajo" type="Nomad.NSystem.Int"/>
					<qry:insert-select doc-path="." name="FIND-PER-DESCR"/>
				</qry:out>
			</qry:select>
			<qry:select doc="PARAM" name="FIND-PER-DESCR">
				<qry:xquery>
					for $r in sql('
					SELECT e_numero_legajo COD, d_ape_y_nom DES 
					FROM PER02_PERSONAL_EMP, PER01_PERSONAL			
					JOIN 
					PER02_PERSONAL_EMP.oi_personal INNER PER01_PERSONAL.oi_personal
					WHERE
					PER02_PERSONAL_EMP.oi_personal_emp ={#PARAM:@id}')/ROWS/ROW
				</qry:xquery>
				<qry:out>
					<qry:attribute value="'[' + $r/@COD + '] ' + $r/@DES" name="descr"/>
					<qry:attribute value="$r/@DES" name="text"/>
				</qry:out>
			</qry:select>
			<qry:select doc="PARAM" name="SECURITY">
				<qry:xquery>
					for $r in sql('
					SELECT NMD_SECURITY.policy 
					FROM NMD_SECURITY 
					WHERE
					NMD_SECURITY.class=\'NucleusRH.Base.Personal.LegajoEmpresa.PERSONAL_EMP\' 
					AND NMD_SECURITY.id={#PARAM:oi_personal_emp/@id}')/ROWS/ROW
				</qry:xquery>
				<qry:out>
					<qry:attribute value="$r/@policy" name="policy"/>
				</qry:out>
			</qry:select>
		</qry:define>
		<qry:define declare="&lt;DATOS user=&quot;rmarra&quot; oi_personal_emp_user=&quot;&quot; oi_evento=&quot;13&quot; oi_evaluador=&quot;&quot; mis_evaluados=&quot;1&quot; c_estado=&quot;&quot; oi_supervisor=&quot;11442&quot; ATRIB_ORDEN1=&quot;&quot; ATRIB_ORDEN2=&quot;&quot; ATRIB_ORDEN3=&quot;&quot; ATRIB_ORDEN4=&quot;&quot; ORDEN1=&quot;&quot; ORDEN2=&quot;&quot; ORDEN3=&quot;&quot; ORDEN4=&quot;&quot; &gt;&lt;EVALUADOS /&gt;&lt;/DATOS&gt;" name="FILTER">
			<qry:main doc="SOURCE">
				<qry:element name="ROWS">
					<qry:insert-select doc-path="#SOURCE:DATOS" name="RS1"/>
				</qry:element>
			</qry:main>
			<qry:select doc="SOURCE" name="RS1">
				<qry:xquery>
					for $r in sql('
			SELECT
			EVA02_EVALUACION.oi_evaluacion, EVA02_EVALUACION.f_evaluacion, 
			EVA01_EVENTOS.c_evento, PER02_PERSONAL_EMP.e_numero_legajo, PER02_PERSONAL_EMP.oi_personal_emp,
			PER01_PERSONAL.d_ape_y_nom, EVA02_EVALUACION.c_estado
			FROM
			EVA02_EVALUACION, EVA01_EVENTOS, PER02_PERSONAL_EMP, PER01_PERSONAL
			JOIN
			EVA02_EVALUACION.oi_evento INNER EVA01_EVENTOS.oi_evento,
			EVA02_EVALUACION.oi_personal_emp INNER PER02_PERSONAL_EMP.oi_personal_emp,
			PER02_PERSONAL_EMP.oi_personal INNER PER01_PERSONAL.oi_personal
			WHERE
			EVA02_EVALUACION.oi_evento = {#SOURCE:@oi_evento}
      {%? (#SOURCE:@oi_personal_emp_user!='')	{% AND EVA02_EVALUACION.oi_evaluador = {#SOURCE:@oi_personal_emp_user} %} 
      		{% 
      			{%? (#SOURCE:@oi_evaluador!='')	{% AND EVA02_EVALUACION.oi_evaluador = {#SOURCE:@oi_evaluador} %} {% %} %}
      		%} %}      
      {%? (#SOURCE:@oi_supervisor!='')	{% AND EVA02_EVALUACION.oi_supervisor = {#SOURCE:@oi_supervisor} %} {% AND 1=2 %} %}
      {%? (#SOURCE:@c_estado!='')	{% AND EVA02_EVALUACION.c_estado= {#SOURCE:@c_estado} %} {% %} %}
      {%? (string(#SOURCE:ROWS/ROW/@id)!='') {% AND EVA02_EVALUACION.oi_personal_emp  in ({%=string(#SOURCE:ROWS/ROW/@id) %}) %} {%  %} %}
      ORDER BY
      {%? (#SOURCE:@ATRIB_ORDEN1!='')	{% {%=#SOURCE:@ATRIB_ORDEN1%} {%? (#SOURCE:@ORDEN1!='') {% {%=#SOURCE:@ORDEN1%}, %} {% ASC, %}	%} %} {% %} %}
			oi_evaluacion	ASC
      ')/ROWS/ROW
				</qry:xquery>
				<qry:out>
					<qry:element name="ROW">
						<qry:attribute type="Nomad.NSystem.String" value="$r/@oi_evaluacion" name="value"/>
						<qry:attribute type="Nomad.NSystem.String" value="$r/@oi_evaluacion" name="id"/>
						<qry:attribute type="Nomad.NSystem.String" value="$r/@oi_personal_emp" name="oi_personal_emp"/>
						<qry:insert-select doc-path="." name="SECURITY"/>
					</qry:element>
				</qry:out>
			</qry:select>
			<qry:select doc="PARAM" name="SECURITY">
				<qry:xquery>
					for $r in sql('
			SELECT NMD_SECURITY.policy 
			FROM NMD_SECURITY 
			WHERE
			NMD_SECURITY.class=\'NucleusRH.Base.Personal.LegajoEmpresa.PERSONAL_EMP\' 
			AND NMD_SECURITY.id={#PARAM:@oi_personal_emp}')/ROWS/ROW
				</qry:xquery>
				<qry:out>
					<qry:attribute value="$r/@policy" name="policy"/>
				</qry:out>
			</qry:select>
		</qry:define>
	</flow:declare>
	<flow:main doc="SOURCE">
		<flow:action name="initialize">
			<flow:open-form form-class="NucleusRH.Base.Evaluacion.Evaluacion.EVALUACION_Supervision.filter.form" doc-path="#FILTERDATA:" mode="FILTER"/>
		</flow:action>
	</flow:main>
	<flow:group Name="EVALUACION">
		<flow:form name="NucleusRH.Base.Evaluacion.Evaluacion.EVALUACION_Supervision.filter.form:FILTER" form-class="NucleusRH.Base.Evaluacion.Evaluacion.EVALUACION_Supervision.filter.form" extends="NucleusRH.Base.Evaluacion.Evaluacion.EVALUACION.filter.form:FILTER" parent-doc="PARENTSOURCE" doc="SOURCE" mode="FILTER">
			<flow:action name="Save-FILTER">
				<flow:save-user-data name="FILTER-NucleusRH.Base.Evaluacion.Evaluacion.EVALUACION_Supervision" doc-path="#FILTERDATA:"/>
			</flow:action>
			<flow:action name="Load-FILTER">
				<flow:load-user-data name="FILTER-NucleusRH.Base.Evaluacion.Evaluacion.EVALUACION_Supervision" doc="FILTERDATA"/>
			</flow:action>
			<flow:action name="IN_FILTER">
				<doc:set-attribute from-attr-path="#USER:@oi_personal_emp" to-attr-path="#SOURCE:@oi_supervisor"/>
				<doc:set-attribute to-attr-path="#SOURCE:@oi_personal_emp_user" from-value=""/>
			</flow:action>
		</flow:form>
		<flow:form name="NucleusRH.Base.Evaluacion.Evaluacion.EVALUACION.noreg.form:EDIT1" form-class="NucleusRH.Base.Evaluacion.Evaluacion.EVALUACION.noreg.form" extends="NucleusRH.Base.Evaluacion.Evaluacion.EVALUACION.noreg.form:EDIT" parent-doc="PARENTSOURCE" doc="SOURCE" mode="EDIT">
			<flow:action name="open-flow-SHOW">
				<flow:open-form form-class="NucleusRH.Base.Evaluacion.Evaluacion.EVALUACION_Supervision.form" iter-index="#QRY:ROW/@id" parent-doc-path="#QRY:" doc-path="#DDO:" mode="SHOW"/>
			</flow:action>
			<flow:action name="open-flow-LIST">
				<flow:open-form form-class="NucleusRH.Base.Evaluacion.Evaluacion.EVALUACION_Supervision.form" iter-index="#QRY_LIST:ROW/@id" parent-doc-path="#QRY_LIST:" doc-path="#DDO:" mode="LIST"/>
			</flow:action>
		</flow:form>
		<flow:form extends="NucleusRH.Base.Evaluacion.Evaluacion.EVALUACION.form:EDIT" name="NucleusRH.Base.Evaluacion.Evaluacion.EVALUACION_Supervision.form:EDIT" form-class="NucleusRH.Base.Evaluacion.Evaluacion.EVALUACION_Supervision.form" parent-doc="PARENTSOURCE" doc="SOURCE" mode="EDIT"/>
		<flow:form extends="NucleusRH.Base.Evaluacion.Evaluacion.EVALUACION.form:SHOW" name="NucleusRH.Base.Evaluacion.Evaluacion.EVALUACION_Supervision.form:SHOW" form-class="NucleusRH.Base.Evaluacion.Evaluacion.EVALUACION_Supervision.form" parent-doc="PARENTSOURCE" doc="SOURCE" mode="SHOW">
			<flow:action name="open-flow-EDIT">
				<flow:open-form form-class="NucleusRH.Base.Evaluacion.Evaluacion.EVALUACION_Supervision.form" doc-path="#DDO:" mode="EDIT"/>
			</flow:action>
		</flow:form>
		<flow:form extends="NucleusRH.Base.Evaluacion.Evaluacion.EVALUACION.form:LIST" name="NucleusRH.Base.Evaluacion.Evaluacion.EVALUACION_Supervision.form:LIST" form-class="NucleusRH.Base.Evaluacion.Evaluacion.EVALUACION_Supervision.form" parent-doc="PARENTSOURCE" doc="SOURCE" mode="LIST"/>
	</flow:group>
	<flow:group name="COMPETENCIAS">
		<flow:form name="NucleusRH.Base.Evaluacion.Evaluacion.COM_EVALU.noreg.form:SHOW1" extends="NucleusRH.Base.Evaluacion.Evaluacion.COM_EVALU.noreg.form:SHOW" parent-doc="PARENTSOURCE" doc="SOURCE" form-class="NucleusRH.Base.Evaluacion.Evaluacion.COM_EVALU.noreg.autoform" mode="SHOW">
			<flow:action name="on-move-iterator">
				<flow:open-form form-class="NucleusRH.Base.Evaluacion.Evaluacion.COM_EVALU_Edicion.form" iter-index="#PARENTSOURCE:COM_EVALU/@id" parent-doc-path="#PARENTSOURCE:" doc-path="#PARENTSOURCE:" mode="SHOW"/>
			</flow:action>
		</flow:form>
		<flow:form name="NucleusRH.Base.Evaluacion.Evaluacion.COM_EVALU.noreg.form:EDIT1" extends="NucleusRH.Base.Evaluacion.Evaluacion.COM_EVALU.noreg.form:EDIT" parent-doc="PARENTSOURCE" doc="SOURCE" form-class="NucleusRH.Base.Evaluacion.Evaluacion.COM_EVALU.noreg.autoform" mode="EDIT">
			<flow:action name="on-move-iterator">
				<flow:open-form form-class="NucleusRH.Base.Evaluacion.Evaluacion.COM_EVALU_Edicion.form" iter-index="#PARENTSOURCE:COM_EVALU/@id" parent-doc-path="#PARENTSOURCE:" doc-path="#PARENTSOURCE:" mode="EDIT"/>
			</flow:action>
		</flow:form>
		<flow:form name="NucleusRH.Base.Evaluacion.Evaluacion.COM_EVALU_Edicion.form:SHOW" form-class="NucleusRH.Base.Evaluacion.Evaluacion.COM_EVALU_Edicion.form" extends="NucleusRH.Base.Evaluacion.Evaluacion.COM_EVALU.form:SHOW" parent-doc="PARENTSOURCE" doc="SOURCE" mode="SHOW"/>
		<flow:form name="NucleusRH.Base.Evaluacion.Evaluacion.COM_EVALU_Edicion.form:EDIT" form-class="NucleusRH.Base.Evaluacion.Evaluacion.COM_EVALU_Edicion.form" extends="NucleusRH.Base.Evaluacion.Evaluacion.COM_EVALU.form:EDIT" parent-doc="PARENTSOURCE" doc="SOURCE" mode="EDIT"/>
	</flow:group>
</flow:flow>
