<flow:flow xmlns:flow="nomad_engine.flow" xmlns:doc="nomad_engine.doc" xmlns:qry="nomad_engine.qry" name="NucleusRH.Base.Evaluacion.Evaluacion.Consulta.flow" default_action="initialize" extends="NucleusRH.Base.Evaluacion.Evaluacion.autoflow">
	<flow:info label="Flow para NucleusRH.Base.Evaluacion.Evaluacion"/>
	<flow:declare>
		<doc:define name="EMPRESA"/>
		<doc:define name="ESCALAS"/>
		<doc:define name="USER">
			<DATOS/>
		</doc:define>
		<doc:define name="AUXDOC">
			<DATA result=""/>
		</doc:define>
		<doc:define name="FILTERDATA">
			<DATOS oi_evento="" oi_evaluador="" oi_personal_emp_user="" mis_evaluados="0" c_estado="" ATRIB_ORDEN1="" ATRIB_ORDEN2="" ATRIB_ORDEN3="" ATRIB_ORDEN4="" ORDEN1="" ORDEN2="" ORDEN3="" ORDEN4="">
				<ROWS/>
			</DATOS>
		</doc:define>
		<doc:define class="Nomad.Base.Mail.OutputMails.DESTINATARIO" name="DESTINATARIO"/>
		<doc:define class="Nomad.Base.Mail.OutputMails.MAIL" name="MAIL"/>
		<qry:define declare="&lt;DATOS user=&quot;rmarra&quot; oi_personal_emp_user=&quot;&quot; oi_evento=&quot;13&quot; oi_evaluador=&quot;&quot; mis_evaluados=&quot;0&quot; c_estado=&quot;&quot; oi_supervisor=&quot;11442&quot; ATRIB_ORDEN1=&quot;&quot; ATRIB_ORDEN2=&quot;&quot; ATRIB_ORDEN3=&quot;&quot; ATRIB_ORDEN4=&quot;&quot; ORDEN1=&quot;&quot; ORDEN2=&quot;&quot; ORDEN3=&quot;&quot; ORDEN4=&quot;&quot; &gt;&lt;EVALUADOS /&gt;&lt;/DATOS&gt;" name="LIST">
			<qry:main maxdeep="2" doc="SOURCE">
				<qry:element name="ROWS">
					<qry:insert-select doc-path="#SOURCE:DATOS" name="sql1"/>
				</qry:element>
			</qry:main>
			<qry:select doc="SOURCE" name="sql1">
				<qry:xquery>
					for $r in sql('
			SELECT 
			EVA02_EVALUACION.oi_evaluacion, EVA02_EVALUACION.c_resultado,
			EVA02_EVALUACION.oi_personal_emp, EVA02_EVALUACION.oi_evento, 
			EVA02_EVALUACION.oi_evaluador, EVA01_EVENTOS.c_evento,
			PER02_PERSONAL_EMP.e_numero_legajo, PER01_PERSONAL.d_ape_y_nom,
			EVA02_EVALUACION.f_evaluacion, EVA02_EVALUACION.c_estado
			FROM 
			EVA02_EVALUACION, EVA01_EVENTOS, PER02_PERSONAL_EMP, PER01_PERSONAL
			JOIN
			EVA02_EVALUACION.oi_evento INNER EVA01_EVENTOS.oi_evento,
			EVA02_EVALUACION.oi_personal_emp INNER PER02_PERSONAL_EMP.oi_personal_emp,
			PER02_PERSONAL_EMP.oi_personal INNER PER01_PERSONAL.oi_personal
      WHERE
      EVA02_EVALUACION.oi_evento = {#SOURCE:@oi_evento}
			{%? (#SOURCE:@mis_evaluados='1')	{% AND EVA02_EVALUACION.oi_evaluador = {#SOURCE:@oi_personal_emp_user} %} 
      		{% 
      			{%? (#SOURCE:@oi_evaluador!='')	{% AND EVA02_EVALUACION.oi_evaluador = {#SOURCE:@oi_evaluador} %} {% %} %}
      		%} %}     
      {%? (#SOURCE:@oi_supervisor!='')	{% AND EVA02_EVALUACION.oi_supervisor = {#SOURCE:@oi_supervisor} %} {% %} %}
      {%? (#SOURCE:@c_estado!='')	{% AND EVA02_EVALUACION.c_estado= {#SOURCE:@c_estado} %} {% %} %}
      {%? (string(#SOURCE:ROWS/ROW/@id)!='') {% AND EVA02_EVALUACION.oi_personal_emp  in ({%=string(#SOURCE:ROWS/ROW/@id) %}) %} {%  %} %}
      ORDER BY
      {%? (#SOURCE:@ATRIB_ORDEN1!='')	{% {%=#SOURCE:@ATRIB_ORDEN1%} {%? (#SOURCE:@ORDEN1!='') {% {%=#SOURCE:@ORDEN1%}, %} {% ASC, %}	%} %} {% %} %}
			oi_evaluacion	ASC
	    ')/ROWS/ROW
				</qry:xquery>
				<qry:out>
					<qry:element name="ROW">
						<qry:attribute name="id" value="$r/@oi_evaluacion" type="Nomad.NSystem.Int"/>
						<qry:attribute name="c_resultado" value="$r/@c_resultado"/>
						<qry:attribute name="c_estado" value="$r/@c_estado"/>
						<qry:element name="oi_personal_emp">
							<qry:attribute name="value" value="$r/@oi_personal_emp"/>
							<qry:insert-select name="sql2" doc-path="."/>
						</qry:element>
						<qry:attribute name="oi_personal_emp_descr" value="./oi_personal_emp/@code+'-'+./oi_personal_emp/@text"/>
						<qry:element name="oi_evento">
							<qry:attribute name="value" value="$r/@oi_evento"/>
							<qry:insert-select name="sql3" doc-path="."/>
						</qry:element>
						<qry:attribute name="oi_evento_descr" value="./oi_evento/@code+'-'+./oi_evento/@text"/>
						<qry:element name="oi_evaluador">
							<qry:attribute name="value" value="$r/@oi_evaluador"/>
							<qry:insert-select name="sql4" doc-path="."/>
						</qry:element>
						<qry:attribute name="oi_evaluador_descr" value="./oi_evaluador/@code+'-'+./oi_evaluador/@text"/>
						<qry:insert-select doc-path="." name="SECURITY"/>
					</qry:element>
				</qry:out>
			</qry:select>
			<qry:select doc="PARAM" name="sql2">
				<qry:xquery>
					for $r in sql('
					SELECT PER02_PERSONAL_EMP.oi_personal_emp, PER02_PERSONAL_EMP.e_numero_legajo
					FROM PER02_PERSONAL_EMP 
					WHERE PER02_PERSONAL_EMP.oi_personal_emp={#PARAM:@value}')/ROWS/ROW
				</qry:xquery>
				<qry:out>
					<qry:attribute name="id" value="$r/@oi_personal_emp" type="Nomad.NSystem.Int"/>
					<qry:attribute name="e_numero_legajo" value="$r/@e_numero_legajo" type="Nomad.NSystem.Int"/>
					<qry:attribute name="code" value="$r/@e_numero_legajo" type="Nomad.NSystem.Int"/>
					<qry:insert-select doc-path="." name="FIND-PER-DESCR"/>
				</qry:out>
			</qry:select>
			<qry:select doc="PARAM" name="FIND-PER-DESCR">
				<qry:xquery>
					for $r in sql('
					SELECT PER02_PERSONAL_EMP.e_numero_legajo AS COD, PER01_PERSONAL.d_ape_y_nom AS DES 
					FROM 
					PER02_PERSONAL_EMP, PER01_PERSONAL
					JOIN
					PER02_PERSONAL_EMP.oi_personal INNER PER01_PERSONAL.oi_personal
					WHERE
					PER02_PERSONAL_EMP.oi_personal_emp = {#PARAM:@id}')/ROWS/ROW
				</qry:xquery>
				<qry:out>
					<qry:attribute value="'[' + $r/@COD + '] ' + $r/@DES" name="descr"/>
					<qry:attribute value="$r/@DES" name="text"/>
				</qry:out>
			</qry:select>
			<qry:select doc="PARAM" name="sql3">
				<qry:xquery>
					for $r in sql('
					SELECT EVA01_EVENTOS.oi_evento, EVA01_EVENTOS.c_evento, EVA01_EVENTOS.d_evento
					FROM EVA01_EVENTOS 
					WHERE EVA01_EVENTOS.oi_evento={#PARAM:@value}')/ROWS/ROW
				</qry:xquery>
				<qry:out>
					<qry:attribute name="id" value="$r/@oi_evento" type="Nomad.NSystem.Int"/>
					<qry:attribute name="c_evento" value="$r/@c_evento" type="Nomad.NSystem.String"/>
					<qry:attribute name="code" value="$r/@c_evento" type="Nomad.NSystem.String"/>
					<qry:attribute name="d_evento" value="$r/@d_evento" type="Nomad.NSystem.String"/>
					<qry:attribute name="text" value="$r/@d_evento" type="Nomad.NSystem.String"/>
				</qry:out>
			</qry:select>
			<qry:select doc="PARAM" name="sql4">
				<qry:xquery>
					for $r in sql('
					SELECT PER02_PERSONAL_EMP.oi_personal_emp, PER02_PERSONAL_EMP.e_numero_legajo
					FROM PER02_PERSONAL_EMP 
					WHERE PER02_PERSONAL_EMP.oi_personal_emp = {#PARAM:@value}')/ROWS/ROW
				</qry:xquery>
				<qry:out>
					<qry:attribute name="id" value="$r/@oi_personal_emp" type="Nomad.NSystem.Int"/>
					<qry:attribute name="e_numero_legajo" value="$r/@e_numero_legajo" type="Nomad.NSystem.Int"/>
					<qry:attribute name="code" value="$r/@e_numero_legajo" type="Nomad.NSystem.Int"/>
					<qry:insert-select doc-path="." name="FIND-PER-DESCR"/>
				</qry:out>
			</qry:select>
			<qry:select doc="PARAM" name="FIND-PER-DESCR">
				<qry:xquery>
					for $r in sql('
					SELECT e_numero_legajo COD, d_ape_y_nom DES 
					FROM PER02_PERSONAL_EMP, PER01_PERSONAL			
					JOIN 
					PER02_PERSONAL_EMP.oi_personal INNER PER01_PERSONAL.oi_personal
					WHERE
					PER02_PERSONAL_EMP.oi_personal_emp ={#PARAM:@id}')/ROWS/ROW
				</qry:xquery>
				<qry:out>
					<qry:attribute value="'[' + $r/@COD + '] ' + $r/@DES" name="descr"/>
					<qry:attribute value="$r/@DES" name="text"/>
				</qry:out>
			</qry:select>
			<qry:select doc="PARAM" name="SECURITY">
				<qry:xquery>
					for $r in sql('
					SELECT NMD_SECURITY.policy 
					FROM NMD_SECURITY 
					WHERE
					NMD_SECURITY.class=\'NucleusRH.Base.Personal.LegajoEmpresa.PERSONAL_EMP\' 
					AND NMD_SECURITY.id={#PARAM:oi_personal_emp/@id}')/ROWS/ROW
				</qry:xquery>
				<qry:out>
					<qry:attribute value="$r/@policy" name="policy"/>
				</qry:out>
			</qry:select>
		</qry:define>
		<qry:define declare="&lt;DATOS user=&quot;rmarra&quot; oi_personal_emp_user=&quot;&quot; oi_evento=&quot;13&quot; oi_evaluador=&quot;&quot; mis_evaluados=&quot;0&quot; c_estado=&quot;&quot; oi_supervisor=&quot;11442&quot; ATRIB_ORDEN1=&quot;&quot; ATRIB_ORDEN2=&quot;&quot; ATRIB_ORDEN3=&quot;&quot; ATRIB_ORDEN4=&quot;&quot; ORDEN1=&quot;&quot; ORDEN2=&quot;&quot; ORDEN3=&quot;&quot; ORDEN4=&quot;&quot; &gt;&lt;EVALUADOS /&gt;&lt;/DATOS&gt;" name="FILTER">
			<qry:main doc="SOURCE">
				<qry:element name="ROWS">
					<qry:insert-select doc-path="#SOURCE:DATOS" name="RS1"/>
				</qry:element>
			</qry:main>
			<qry:select doc="SOURCE" name="RS1">
				<qry:xquery>
					for $r in sql('
			SELECT
			EVA02_EVALUACION.oi_evaluacion, EVA02_EVALUACION.f_evaluacion, 
			EVA01_EVENTOS.c_evento, PER02_PERSONAL_EMP.e_numero_legajo, PER02_PERSONAL_EMP.oi_personal_emp,
			PER01_PERSONAL.d_ape_y_nom, EVA02_EVALUACION.c_estado
			FROM
			EVA02_EVALUACION, EVA01_EVENTOS, PER02_PERSONAL_EMP, PER01_PERSONAL
			JOIN
			EVA02_EVALUACION.oi_evento INNER EVA01_EVENTOS.oi_evento,
			EVA02_EVALUACION.oi_personal_emp INNER PER02_PERSONAL_EMP.oi_personal_emp,
			PER02_PERSONAL_EMP.oi_personal INNER PER01_PERSONAL.oi_personal
			WHERE
			EVA02_EVALUACION.oi_evento = {#SOURCE:@oi_evento}
      {%? (#SOURCE:@mis_evaluados='1')	{% AND EVA02_EVALUACION.oi_evaluador = {#SOURCE:@oi_personal_emp_user} %} 
      		{% 
      			{%? (#SOURCE:@oi_evaluador!='')	{% AND EVA02_EVALUACION.oi_evaluador = {#SOURCE:@oi_evaluador} %} {% %} %}
      		%} %}      
      {%? (#SOURCE:@oi_supervisor!='')	{% AND EVA02_EVALUACION.oi_supervisor = {#SOURCE:@oi_supervisor} %} {% %} %}
      {%? (#SOURCE:@c_estado!='')	{% AND EVA02_EVALUACION.c_estado= {#SOURCE:@c_estado} %} {% %} %}
      {%? (string(#SOURCE:ROWS/ROW/@id)!='') {% AND EVA02_EVALUACION.oi_personal_emp  in ({%=string(#SOURCE:ROWS/ROW/@id) %}) %} {%  %} %}
      ORDER BY
      {%? (#SOURCE:@ATRIB_ORDEN1!='')	{% {%=#SOURCE:@ATRIB_ORDEN1%} {%? (#SOURCE:@ORDEN1!='') {% {%=#SOURCE:@ORDEN1%}, %} {% ASC, %}	%} %} {% %} %}
    	oi_evaluacion	ASC
      ')/ROWS/ROW
				</qry:xquery>
				<qry:out>
					<qry:element name="ROW">
						<qry:attribute type="Nomad.NSystem.String" value="$r/@oi_evaluacion" name="value"/>
						<qry:attribute type="Nomad.NSystem.String" value="$r/@oi_evaluacion" name="id"/>
						<qry:attribute type="Nomad.NSystem.String" value="$r/@oi_personal_emp" name="oi_personal_emp"/>
						<qry:insert-select doc-path="." name="SECURITY"/>
					</qry:element>
				</qry:out>
			</qry:select>
			<qry:select doc="PARAM" name="SECURITY">
				<qry:xquery>
					for $r in sql('
			SELECT NMD_SECURITY.policy 
			FROM NMD_SECURITY 
			WHERE
			NMD_SECURITY.class=\'NucleusRH.Base.Personal.LegajoEmpresa.PERSONAL_EMP\' 
			AND NMD_SECURITY.id={#PARAM:@oi_personal_emp}')/ROWS/ROW
				</qry:xquery>
				<qry:out>
					<qry:attribute value="$r/@policy" name="policy"/>
				</qry:out>
			</qry:select>
		</qry:define>
		<qry:define declare="&lt;APT_COM nmd-col=&quot;1&quot;&gt;&#13;&#10;&lt;APT_COM nmd-status=&quot;~i,&quot; oi_com_evalu=&quot;0&quot; id=&quot;#CE3F87FCFE92-CE45D9040550-000000000279&quot;&gt;&#13;&#10;&lt;oi_aptit_comp value=&quot;4&quot; nmd-agr=&quot;1&quot;/&gt;&#13;&#10;&lt;oi_val_escala value=&quot;&quot; nmd-agr=&quot;1&quot;/&gt;&#13;&#10;&lt;/APT_COM&gt;&#13;&#10;&lt;APT_COM nmd-status=&quot;~i,&quot; oi_com_evalu=&quot;0&quot; id=&quot;#CE3F87FCFE92-CE45D9040550-00000000027A&quot;&gt;&#13;&#10;&lt;oi_aptit_comp value=&quot;5&quot; nmd-agr=&quot;1&quot;/&gt;&#13;&#10;&lt;oi_val_escala value=&quot;&quot; nmd-agr=&quot;1&quot;/&gt;&#13;&#10;&lt;/APT_COM&gt;&#13;&#10;&lt;APT_COM nmd-status=&quot;~i,&quot; oi_com_evalu=&quot;0&quot; id=&quot;#CE3F87FCFE92-CE45D9040550-00000000027B&quot;&gt;&#13;&#10;&lt;oi_aptit_comp value=&quot;6&quot; nmd-agr=&quot;1&quot;/&gt;&#13;&#10;&lt;oi_val_escala value=&quot;&quot; nmd-agr=&quot;1&quot;/&gt;&#13;&#10;&lt;/APT_COM&gt;&#13;&#10;&lt;APT_COM nmd-status=&quot;~i,&quot; oi_com_evalu=&quot;0&quot; id=&quot;#CE3F87FCFE92-CE45D9040550-00000000027C&quot;&gt;&#13;&#10;&lt;oi_aptit_comp value=&quot;7&quot; nmd-agr=&quot;1&quot;/&gt;&#13;&#10;&lt;oi_val_escala value=&quot;&quot; nmd-agr=&quot;1&quot;/&gt;&#13;&#10;&lt;/APT_COM&gt;&#13;&#10;&lt;APT_COM nmd-status=&quot;~i,&quot; oi_com_evalu=&quot;0&quot; id=&quot;#CE3F87FCFE92-CE45D9040550-00000000027D&quot;&gt;&#13;&#10;&lt;oi_aptit_comp value=&quot;8&quot; nmd-agr=&quot;1&quot;/&gt;&#13;&#10;&lt;oi_val_escala value=&quot;&quot; nmd-agr=&quot;1&quot;/&gt;&#13;&#10;&lt;/APT_COM&gt;&#13;&#10;&lt;/APT_COM&gt;&#13;&#10;" name="qry_escalas">
			<qry:main doc="SOURCE">
				<qry:element name="ESCALAS">
					<qry:insert-select name="sql1" doc-path="#SOURCE:"/>
				</qry:element>
			</qry:main>
			<qry:select name="sql1" doc="SOURCE">
				<qry:xquery>
					for $r in #SOURCE:APT_COM/APT_COM/oi_aptit_comp
				</qry:xquery>
				<qry:out>
					<qry:element name="ESCALA">
						<qry:attribute name="id" value="$r/@value"/>
						<qry:insert-select name="sql2" doc-path="."/>
					</qry:element>
				</qry:out>
			</qry:select>
			<qry:select name="sql2" doc="SOURCE">
				<qry:xquery>
					for $r in sql('
			SELECT ORG28_APTITUDES.oi_escala
			FROM ORG28_APTITUDES, ORG21_APTIT_COMP
			JOIN
			ORG28_APTITUDES.oi_aptitud INNER ORG21_APTIT_COMP.oi_aptitud			
			WHERE
			ORG21_APTIT_COMP.oi_aptit_comp = {#SOURCE:@id}			
			')/ROWS/ROW
				</qry:xquery>
				<qry:out>
					<qry:attribute name="oi_escala" value="$r/@oi_escala"/>
					<qry:element name="OPTS">
						<qry:insert-select name="sql3" doc-path=".."/>
					</qry:element>
				</qry:out>
			</qry:select>
			<qry:select name="sql3" doc="SOURCE">
				<qry:xquery>
					for $r in sql('
			SELECT ORG29_VAL_ESCALAS.oi_val_escala, ORG29_VAL_ESCALAS.c_valor, ORG29_VAL_ESCALAS.d_valor 
			FROM ORG29_VAL_ESCALAS
			WHERE ORG29_VAL_ESCALAS.oi_escala = {#SOURCE:@oi_escala}
			')/ROWS/ROW
				</qry:xquery>
				<qry:out>
					<qry:element name="OPT">
						<qry:attribute name="value" value="$r/@oi_val_escala"/>
						<qry:attribute name="text" value="$r/@d_valor"/>
					</qry:element>
				</qry:out>
			</qry:select>
		</qry:define>
		<qry:define declare="&lt;EVALUACION text=&quot;Garzon, Esteban&quot; descr=&quot;[622] Garzon, Esteban&quot; l_aprobado_obj=&quot;0&quot; l_aprobado_comp=&quot;0&quot; l_aprobado=&quot;0&quot; c_estado=&quot;AB&quot; c_tipo_evaluacion=&quot;2&quot; id=&quot;76&quot; f_evaluacion=&quot;&quot; o_evaluado=&quot;&quot; o_evaluador=&quot;&quot; c_resultado=&quot;&quot; c_res_comp=&quot;&quot; c_res_objetivos=&quot;&quot;&gt;&#13;&#10;  &lt;oi_evento value=&quot;10&quot; nmd-agr=&quot;1&quot; /&gt;&#13;&#10;  &lt;oi_personal_emp value=&quot;11436&quot; nmd-agr=&quot;1&quot; /&gt;&#13;&#10;  &lt;oi_pos_evaluado value=&quot;24&quot; nmd-agr=&quot;1&quot; /&gt;&#13;&#10;  &lt;oi_evaluador value=&quot;11437&quot; nmd-agr=&quot;1&quot; /&gt;&#13;&#10;  &lt;oi_pos_evaluador value=&quot;20&quot; nmd-agr=&quot;1&quot; /&gt;&#13;&#10;  &lt;oi_supervisor value=&quot;11442&quot; nmd-agr=&quot;1&quot; /&gt;&#13;&#10;  &lt;oi_pos_supervisor value=&quot;19&quot; nmd-agr=&quot;1&quot; /&gt;&#13;&#10;  &lt;COM_EVALU nmd-col=&quot;1&quot;&gt;&#13;&#10;    &lt;COM_EVALU text=&quot;DESARROLLO DE PERSONAS&quot; descr=&quot;[622] Garzon, Esteban - [DEPER] DESARROLLO DE PERSONAS&quot; n_ponderacion=&quot;30&quot; oi_evaluacion=&quot;76&quot; id=&quot;148&quot;&gt;&#13;&#10;      &lt;oi_competencia value=&quot;9&quot; nmd-agr=&quot;1&quot; /&gt;&#13;&#10;      &lt;APT_COM nmd-col=&quot;1&quot;&gt;&#13;&#10;        &lt;APT_COM descr=&quot;[622] Garzon, Esteban - [DEPER] DESARROLLO DE PERSONAS - [] &quot; n_ponderacion=&quot;25&quot; oi_com_evalu=&quot;148&quot; id=&quot;262&quot;&gt;&#13;&#10;          &lt;oi_aptit_comp value=&quot;9&quot; nmd-agr=&quot;1&quot; /&gt;&#13;&#10;          &lt;oi_val_escala value=&quot;9&quot; nmd-agr=&quot;1&quot; /&gt;&#13;&#10;        &lt;/APT_COM&gt;&#13;&#10;        &lt;APT_COM descr=&quot;[622] Garzon, Esteban - [DEPER] DESARROLLO DE PERSONAS - [] &quot; n_ponderacion=&quot;25&quot; oi_com_evalu=&quot;148&quot; id=&quot;263&quot;&gt;&#13;&#10;          &lt;oi_aptit_comp value=&quot;10&quot; nmd-agr=&quot;1&quot; /&gt;&#13;&#10;          &lt;oi_val_escala value=&quot;9&quot; nmd-agr=&quot;1&quot; /&gt;&#13;&#10;        &lt;/APT_COM&gt;&#13;&#10;        &lt;APT_COM descr=&quot;[622] Garzon, Esteban - [DEPER] DESARROLLO DE PERSONAS - [] &quot; n_ponderacion=&quot;25&quot; oi_com_evalu=&quot;148&quot; id=&quot;264&quot;&gt;&#13;&#10;          &lt;oi_aptit_comp value=&quot;11&quot; nmd-agr=&quot;1&quot; /&gt;&#13;&#10;          &lt;oi_val_escala value=&quot;9&quot; nmd-agr=&quot;1&quot; /&gt;&#13;&#10;        &lt;/APT_COM&gt;&#13;&#10;        &lt;APT_COM descr=&quot;[622] Garzon, Esteban - [DEPER] DESARROLLO DE PERSONAS - [] &quot; n_ponderacion=&quot;25&quot; oi_com_evalu=&quot;148&quot; id=&quot;265&quot;&gt;&#13;&#10;          &lt;oi_aptit_comp value=&quot;12&quot; nmd-agr=&quot;1&quot; /&gt;&#13;&#10;          &lt;oi_val_escala nmd-agr=&quot;1&quot; /&gt;&#13;&#10;        &lt;/APT_COM&gt;&#13;&#10;      &lt;/APT_COM&gt;&#13;&#10;    &lt;/COM_EVALU&gt;&#13;&#10;  &lt;/COM_EVALU&gt;    &#13;&#10;  &lt;OBJ_EVALU nmd-col=&quot;1&quot;&gt;&#13;&#10;    &lt;OBJ_EVALU descr=&quot;[622] Garzon, Esteban - [] &quot; n_ponderacion=&quot;0&quot; d_objetivo=&quot;listo&quot; c_objetivo=&quot;listo&quot; oi_evaluacion=&quot;76&quot; id=&quot;52&quot;&gt;&#13;&#10;      &lt;SUBOBJETIVOS nmd-col=&quot;1&quot; /&gt;&#13;&#10;    &lt;/OBJ_EVALU&gt;&#13;&#10;    &lt;OBJ_EVALU descr=&quot;[622] Garzon, Esteban - [] &quot; n_ponderacion=&quot;0&quot; d_objetivo=&quot;otro mas&quot; c_objetivo=&quot;otro mas&quot; oi_evaluacion=&quot;76&quot; id=&quot;53&quot;&gt;&#13;&#10;      &lt;SUBOBJETIVOS nmd-col=&quot;1&quot; /&gt;&#13;&#10;    &lt;/OBJ_EVALU&gt;&#13;&#10;  &lt;/OBJ_EVALU&gt;&#13;&#10;&lt;/EVALUACION&gt;&#13;&#10;" name="SEND_MAIL">
			<qry:main doc="SOURCE">
				<qry:element name="DATA">
					<qry:attribute value="1" name="band"/>
					<qry:attribute name="oi_evento" value="#SOURCE:EVALUACION/oi_evento/@value"/>
					<qry:attribute name="oi_supervisor" value="#SOURCE:EVALUACION/oi_supervisor/@value"/>
					<qry:attribute name="oi_evaluador" value="#SOURCE:EVALUACION/oi_evaluador/@value"/>
					<qry:attribute name="oi_personal_emp" value="#SOURCE:EVALUACION/oi_personal_emp/@value"/>
					<qry:insert-select doc-path="#SOURCE:EVALUACION" name="RS1"/>
					<qry:insert-select doc-path=".[@band=1]" name="RS2"/>
					<qry:insert-select doc-path=".[@band=1]" name="RS3"/>
				</qry:element>
			</qry:main>
			<qry:select doc="SOURCE" name="RS1">
				<qry:xquery>
					for $r in sql('
			SELECT EVA02_EVALUACION.oi_evaluacion
			FROM EVA02_EVALUACION
			WHERE EVA02_EVALUACION.oi_evento = {#SOURCE:oi_evento/@value}
			AND EVA02_EVALUACION.oi_evaluador = {#SOURCE:oi_evaluador/@value}
			AND EVA02_EVALUACION.c_estado = \'AB\'
			')ROWS/ROW
				</qry:xquery>
				<qry:out>
					<qry:attribute value="0" name="band"/>
				</qry:out>
			</qry:select>
			<qry:select doc="SOURCE" name="RS2">
				<qry:xquery>
					for $r in sql('
			SELECT PER01_PERSONAL.oi_usuario_sistema
			FROM PER01_PERSONAL, PER02_PERSONAL_EMP
			JOIN
			PER01_PERSONAL.oi_personal INNER PER02_PERSONAL_EMP.oi_personal			
			WHERE
			PER02_PERSONAL_EMP.oi_personal_emp = {#SOURCE:@oi_supervisor}
			')ROWS/ROW
				</qry:xquery>
				<qry:out>
					<qry:attribute value="$r/@oi_usuario_sistema" name="oi_usuario_sistema"/>
				</qry:out>
			</qry:select>
			<qry:select doc="SOURCE" name="RS3">
				<qry:xquery>
					for $r in sql('
			SELECT PER01_PERSONAL.oi_usuario_sistema, PER01_PERSONAL.d_ape_y_nom,
			EVA01_EVENTOS.d_evento
			FROM PER01_PERSONAL, PER02_PERSONAL_EMP, EVA01_EVENTOS
			JOIN PER01_PERSONAL.oi_personal INNER PER02_PERSONAL_EMP.oi_personal
			WHERE
			EVA01_EVENTOS.oi_evento = {#SOURCE:@oi_evento}
			AND PER02_PERSONAL_EMP.oi_personal_emp = {#SOURCE:@oi_evaluador}
			')ROWS/ROW
				</qry:xquery>
				<qry:out>
					<qry:attribute value="'El evaluador ' + $r/@d_ape_y_nom + ', ha confirmado todas las Evaluaciones de Desempe&#241;o del evento evaluativo ' + $r/@d_evento + '.'" name="msg"/>
				</qry:out>
			</qry:select>
		</qry:define>
		<qry:define declare="&lt;DATOS oi_evento=&quot;15&quot; oi_evaluador=&quot;&quot; oi_personal_emp_user=&quot;11437&quot; mis_evaluados=&quot;0&quot; c_estado=&quot;&quot; ATRIB_ORDEN1=&quot;&quot; ATRIB_ORDEN2=&quot;&quot; ATRIB_ORDEN3=&quot;&quot; ATRIB_ORDEN4=&quot;&quot; ORDEN1=&quot;&quot; ORDEN2=&quot;&quot; ORDEN3=&quot;&quot; ORDEN4=&quot;&quot; user=&quot;pailan&quot;&gt;&lt;ROWS /&gt;&lt;/DATOS&gt;" name="GET_USER">
			<qry:main doc="SOURCE">
				<qry:append-doc doc-path="#SOURCE:DATOS" name="PARAMIN"/>
				<qry:element name="ROW">
					<qry:insert-select doc-path="#SOURCE:DATOS[@mis_evaluados='1']" name="account-name"/>
				</qry:element>
			</qry:main>
			<qry:select name="account-name" doc="SOURCE">
				<qry:xquery>
					for $r in path('Nomad\\Base\\Login\\Cuentas')/CUENTA
				</qry:xquery>
				<qry:out>
					<qry:insert-select name="sql2" doc-path="$r"/>
				</qry:out>
			</qry:select>
			<qry:select name="sql2" doc="PARAM">
				<qry:xquery>
					for $r in file('Nomad\\Base\\Login\\Cuentas\\{%= #PARAM:@FILE %}')/CUENTA[@LOGIN=#PARAMIN:@user]/ENTIDAD
				</qry:xquery>
				<qry:out>
					<qry:insert-select name="sql4" doc-path="$r"/>
				</qry:out>
			</qry:select>
			<qry:select name="sql4" doc="PARAM">
				<qry:xquery>
					for $r in sql('
			SELECT PER02_PERSONAL_EMP.oi_personal_emp
			FROM PER01_PERSONAL, PER02_PERSONAL_EMP, EVA01_EVENTOS
			JOIN PER01_PERSONAL.oi_personal INNER PER02_PERSONAL_EMP.oi_personal,
			PER02_PERSONAL_EMP.oi_empresa INNER EVA01_EVENTOS.oi_empresa
			WHERE
			EVA01_EVENTOS.oi_evento = {#PARAMIN:@oi_evento}
			AND PER01_PERSONAL.oi_usuario_sistema = {#PARAM:@value}
			')/ROWS/ROW
				</qry:xquery>
				<qry:out>
					<qry:attribute value="$r/@oi_personal_emp" name="oi_personal_emp"/>
				</qry:out>
			</qry:select>
		</qry:define>
		<qry:define name="GET_EMPRESA" declare="&lt;DATOS oi_evento=&quot;13&quot;/&gt;">
			<qry:main doc="SOURCE">
				<qry:element name="EMPRESA">
					<qry:insert-select doc-path="#SOURCE:DATOS" name="RS1"/>
				</qry:element>
			</qry:main>
			<qry:select doc="SOURCE" name="RS1">
				<qry:xquery>
					for $r in sql('
				SELECT EVA01_EVENTOS.oi_empresa
				FROM EVA01_EVENTOS
				WHERE EVA01_EVENTOS.oi_evento = {#SOURCE:@oi_evento}
			
      ')/ROWS/ROW
				</qry:xquery>
				<qry:out>
					<qry:attribute value="$r/@oi_empresa" name="oi_empresa"/>
				</qry:out>
			</qry:select>
		</qry:define>
	</flow:declare>
	<flow:main doc="SOURCE">
		<flow:action name="initialize">
			<flow:open-form doc-path="#FILTERDATA:" mode="FILTER" form-class="NucleusRH.Base.Evaluacion.Evaluacion.EVALUACION.filter.form"/>
		</flow:action>
	</flow:main>
	<flow:group Name="EVALUACION">
		<flow:form extends="NucleusRH.Base.Evaluacion.Evaluacion.EVALUACION.filter.autoform:FILTER" parent-doc="PARENTSOURCE" doc="SOURCE" name="NucleusRH.Base.Evaluacion.Evaluacion.EVALUACION.filter.form:FILTER" form-class="NucleusRH.Base.Evaluacion.Evaluacion.EVALUACION.filter.form" mode="FILTER">
			<flow:action name="Save-FILTER">
				<flow:save-user-data name="FILTER-NucleusRH.Base.Evaluacion.Evaluacion.EVALUACION_Consulta" doc-path="#FILTERDATA:"/>
			</flow:action>
			<flow:action name="Load-FILTER">
				<flow:load-user-data name="FILTER-NucleusRH.Base.Evaluacion.Evaluacion.EVALUACION_Consulta" doc="FILTERDATA"/>
			</flow:action>
			<flow:action name="FILTER">
				<flow:log text="KKKKKKK1" text-path="#SOURCE:"/>
				<doc:load-qry output-doc="USER" input-doc-path="#SOURCE:" qry="GET_USER"/>
				<flow:log text="KKKKKKK2" text-path="#USER:"/>
				<doc:set-attribute to-attr-path="#SOURCE:@oi_personal_emp_user" from-attr-path="#USER:@oi_personal_emp"/>
				<flow:call-action action="IN_FILTER"/>
				<flow:log text="KKKKKKK3" text-path="#SOURCE:"/>
				<doc:load-qry input-doc-path="#SOURCE:" qry="FILTER" output-doc="QRY"/>
				<doc:new-object class="NucleusRH.Base.Evaluacion.Evaluacion.EVALUACION" doc="DDO"/>
				<doc:load-qry output-doc="EMPRESA" input-doc-path="#SOURCE:" qry="GET_EMPRESA"/>
				<flow:open-form form-class="NucleusRH.Base.Evaluacion.Evaluacion.EVALUACION.noreg.form" parent-doc-path="#QRY:" doc-path="#DDO:" iter-index="#QRY:ROW/@value" mode="EDIT"/>
				<flow:call-action action="Save-FILTER"/>
			</flow:action>
			<flow:action name="on-show"/>
			<flow:action name="IN_FILTER"/>
		</flow:form>
		<flow:form form-class="NucleusRH.Base.Evaluacion.Evaluacion.EVALUACION.noreg.form" extends="NucleusRH.Base.Evaluacion.Evaluacion.EVALUACION.noreg.autoform:EDIT" parent-doc="PARENTSOURCE" doc="SOURCE" name="NucleusRH.Base.Evaluacion.Evaluacion.EVALUACION.noreg.form:EDIT" mode="EDIT">
			<flow:action name="open-flow-SHOW">
				<flow:open-form iter-index="#QRY:ROW/@id" parent-doc-path="#QRY:" doc-path="#DDO:" mode="SHOW" form-class="NucleusRH.Base.Evaluacion.Evaluacion.EVALUACION.form"/>
			</flow:action>
			<flow:action name="open-flow-LIST">
				<flow:open-form iter-index="#QRY_LIST:ROW/@id" parent-doc-path="#QRY_LIST:" doc-path="#DDO:" mode="LIST" form-class="NucleusRH.Base.Evaluacion.Evaluacion.EVALUACION.form"/>
			</flow:action>
		</flow:form>
		<flow:form extends="NucleusRH.Base.Evaluacion.Evaluacion.EVALUACION.autoform:EDIT" parent-doc="PARENTSOURCE" doc="SOURCE" name="NucleusRH.Base.Evaluacion.Evaluacion.EVALUACION.form:EDIT" form-class="NucleusRH.Base.Evaluacion.Evaluacion.EVALUACION.form" mode="EDIT"/>
		<flow:form extends="NucleusRH.Base.Evaluacion.Evaluacion.EVALUACION.autoform:SHOW" parent-doc="PARENTSOURCE" doc="SOURCE" name="NucleusRH.Base.Evaluacion.Evaluacion.EVALUACION.form:SHOW" form-class="NucleusRH.Base.Evaluacion.Evaluacion.EVALUACION.form" mode="SHOW">
			<flow:action name="open-flow-EDIT">
				<flow:open-form doc-path="#DDO:" mode="EDIT" form-class="NucleusRH.Base.Evaluacion.Evaluacion.EVALUACION.form"/>
			</flow:action>
			<flow:action name="CONFIRMAR">
				<flow:exec-method this-doc="DDO" class="NucleusRH.Base.Evaluacion.Evaluacion.EVALUACION" method="Confirmar"/>
				<flow:call-action action="load-DDO"/>
				<doc:load-qry output-doc="AUXDOC" input-doc-path="#SOURCE:" qry="SEND_MAIL"/>
				<flow:log text="ppAUXDOC" text-path="#AUXDOC:"/>
				<flow:call-action eq="1" if="#AUXDOC:@band" action="SEND_MAIL"/>
			</flow:action>
			<flow:action name="ANULAR">
				<doc:set-attribute from-value="AN" to-attr-path="#SOURCE:@c_estado"/>
				<doc:set-attribute to-attr-path="#SOURCE:@f_confirmacion" from-attr-path="#FORM:ctrl[@id='f_hoy']/@xval" from-value=""/>
				<doc:save-object class="NucleusRH.Base.Evaluacion.Evaluacion.EVALUACION" doc="SOURCE"/>
			</flow:action>
			<flow:action name="CERRAR">
				<flow:exec-method out-type="string" out-attr-path="#AUXDOC:@result" class="NucleusRH.Base.Evaluacion.Evaluacion.EVALUACION" this-doc="SOURCE" method="Calcular"/>
				<flow:call-action eq="" else="CERRAR_FAIL" if="#AUXDOC:@result" action="CERRAR_OK"/>
			</flow:action>
			<flow:action name="CERRAR_OK">
				<doc:set-attribute from-value="CE" to-attr-path="#SOURCE:@c_estado"/>
				<doc:set-attribute from-attr-path="#FORM:ctrl[@id='f_hoy']/@xval" to-attr-path="#SOURCE:@f_cierre"/>
				<doc:save-object class="NucleusRH.Base.Evaluacion.Evaluacion.EVALUACION" doc="SOURCE"/>
			</flow:action>
			<flow:action name="CERRAR_FAIL">
				<flow:message message="Error al cerrar la Evaluaci&#243;n"/>
			</flow:action>
			<flow:action name="SEND_MAIL">
				<doc:new-object class="Nomad.Base.Mail.OutputMails.DESTINATARIO" doc="DESTINATARIO"/>
				<doc:set-attribute from-attr-path="#AUXDOC:@oi_usuario_sistema" to-attr-path="#DESTINATARIO:ENTIDAD/@value"/>
				<doc:new-object doc="MAIL" class="Nomad.Base.Mail.OutputMails.MAIL"/>
				<doc:set-attribute from-value="NucleusRH" to-attr-path="#MAIL:@DESDE_APLICACION"/>
				<doc:set-attribute from-attr-path="#FORM:ctrl[@id='f_hoy']/@xval" to-attr-path="#MAIL:@FECHA_CREACION"/>
				<doc:set-attribute from-value="NucleusRH" to-attr-path="#MAIL:@REMITENTE"/>
				<doc:set-attribute from-value="NucleusRH - Evaluaci&#243;n de Desempe&#241;o" to-attr-path="#MAIL:@ASUNTO"/>
				<doc:set-attribute from-attr-path="#AUXDOC:@msg" to-attr-path="#MAIL:@CONTENIDO"/>
				<doc:add-object doc-path="#DESTINATARIO:" parent-doc-path="#MAIL:DESTINATARIOS"/>
				<doc:save-object class="Nomad.Base.Mail.OutputMails.MAIL" doc="MAIL"/>
			</flow:action>
		</flow:form>
		<flow:form extends="NucleusRH.Base.Evaluacion.Evaluacion.EVALUACION.autoform:LIST" parent-doc="PARENTSOURCE" doc="SOURCE" name="NucleusRH.Base.Evaluacion.Evaluacion.EVALUACION.form:LIST" form-class="NucleusRH.Base.Evaluacion.Evaluacion.EVALUACION.form" mode="LIST">
			<flow:action name="open-flow-EDIT">
				<flow:open-form doc-path="#DDO:" mode="EDIT" form-class="NucleusRH.Base.Evaluacion.Evaluacion.EVALUACION.form"/>
			</flow:action>
		</flow:form>
	</flow:group>
	<flow:group name="COMPETENCIAS">
		<flow:form extends="NucleusRH.Base.Evaluacion.Evaluacion.COM_EVALU.noreg.autoform:SHOW" parent-doc="PARENTSOURCE" doc="SOURCE" name="NucleusRH.Base.Evaluacion.Evaluacion.COM_EVALU.noreg.form:SHOW" form-class="NucleusRH.Base.Evaluacion.Evaluacion.COM_EVALU.noreg.autoform" mode="SHOW">
			<flow:action name="on-move-iterator">
				<flow:open-form iter-index="#PARENTSOURCE:COM_EVALU/@id" parent-doc-path="#PARENTSOURCE:" doc-path="#PARENTSOURCE:" mode="SHOW" form-class="NucleusRH.Base.Evaluacion.Evaluacion.COM_EVALU.form"/>
			</flow:action>
		</flow:form>
		<flow:form extends="NucleusRH.Base.Evaluacion.Evaluacion.COM_EVALU.noreg.autoform:EDIT" parent-doc="PARENTSOURCE" doc="SOURCE" name="NucleusRH.Base.Evaluacion.Evaluacion.COM_EVALU.noreg.form:EDIT" form-class="NucleusRH.Base.Evaluacion.Evaluacion.COM_EVALU.noreg.autoform" mode="EDIT">
			<flow:action name="ADD">
				<doc:new-object doc="NEWDDO" class="NucleusRH.Base.Evaluacion.Evaluacion.COM_EVALU"/>