<flow:flow name="NucleusRH.Base.Evaluacion.Evaluacion.EVALUACION.Blanquear.guia" default_action="HELP" extends="Nomad.parent.guia.flow" xmlns:doc="nomad_engine.form" xmlns:qry="nomad_engine.form" xmlns:flow="nomad_engine.form">
	<flow:info label="Flow guia para NucleusRH.Base.Evaluacion.Evaluacion.EVALUACION"/>
	<flow:main doc="SOURCE">
		<flow:action name="HELP">
			<doc:load-qry output-doc="RS" input-doc-path="#SOURCE:" qry="HELP"/>
			<flow:open-form parent-doc-path="#SOURCE:" doc-path="#RS:" mode="SHOW" form-class="NucleusRH.Base.Evaluacion.Evaluacion.EVALUACION.guia.form"/>
		</flow:action>
		<flow:action name="X2C">
			<flow:log text-path="#SOURCE:" text="OOOOLLLL"/>
			<doc:load-qry output-doc="RS" input-doc-path="#SOURCE:" qry="X2C"/>
			<flow:exit-flow return-path="#RS:"/>
		</flow:action>
	</flow:main>
	<flow:declare>
		<qry:define declare="&lt;helper-mess oi_evento=&quot;3&quot; code1=&quot;&quot; id=&quot;224&quot; text=&quot;&quot; /&gt;" name="X2C">
			<qry:main doc="SOURCE">
				<qry:element name="ROW">
					<qry:insert-select doc-path="#SOURCE:" name="RS1"/>
				</qry:element>
			</qry:main>
			<qry:select doc="SOURCE" name="RS1">
				<qry:xquery>
					for $r in sql('
				SELECT
					PER02_PERSONAL_EMP.oi_personal_emp AS ID, PER02_PERSONAL_EMP.e_numero_legajo AS CODE, PER01_PERSONAL.d_ape_y_nom AS TEXT
        FROM
        	PER02_PERSONAL_EMP, PER01_PERSONAL, EVA02_EVALUACION 
        JOIN
        	PER02_PERSONAL_EMP.oi_personal_emp INNER EVA02_EVALUACION.oi_personal_emp,
        	PER02_PERSONAL_EMP.oi_personal INNER PER01_PERSONAL.oi_personal
        WHERE
        	EVA02_EVALUACION.oi_evento = {%= #SOURCE:helper-mess/@oi_evento %}
        	AND {%? (#SOURCE:helper-mess/@id!='')	{% PER02_PERSONAL_EMP.oi_personal_emp = ({%= #SOURCE:helper-mess/@id %}) %} {% 1 = 2%} %}
        ')/ROWS/ROW
				</qry:xquery>
				<qry:out>
					<qry:attribute type="Nomad.NSystem.Int" value="$r/@ID" name="id"/>
					<qry:attribute type="Nomad.NSystem.Int" value="$r/@ID" name="value"/>
					<qry:attribute type="Nomad.NSystem.String" value="$r/@CODE" name="code1"/>
					<qry:attribute type="Nomad.NSystem.String" value="$r/@TEXT" name="text1"/>
				</qry:out>
			</qry:select>
		</qry:define>
		<qry:define declare="&lt;helper-mess ID=&quot;&quot; CODE1=&quot;15&quot; TEXT1=&quot;&quot; oi_evento=&quot;3&quot;/&gt;" name="C2X">
			<qry:main doc="SOURCE">
				<qry:element name="ROW">
					<qry:insert-select doc-path="#SOURCE:" name="RS2"/>
				</qry:element>
			</qry:main>
			<qry:select doc="SOURCE" name="RS2">
				<qry:xquery>
					for $r in sql('
			SELECT
				PER02_PERSONAL_EMP.oi_personal_emp AS IDD, PER02_PERSONAL_EMP.e_numero_legajo, PER01_PERSONAL.d_ape_y_nom
			FROM
				PER02_PERSONAL_EMP, PER01_PERSONAL, EVA02_EVALUACION 
			JOIN
				PER02_PERSONAL_EMP.oi_personal_emp INNER EVA02_EVALUACION.oi_personal_emp,
      	PER02_PERSONAL_EMP.oi_personal INNER PER01_PERSONAL.oi_personal
			WHERE
				EVA02_EVALUACION.oi_evento = {%= #SOURCE:helper-mess/@oi_evento %}
				AND {%? (#SOURCE:helper-mess/@code1!='')	{% PER02_PERSONAL_EMP.e_numero_legajo = ({%= #SOURCE:helper-mess/@code1 %}) %} {% 1 = 2 %} %}
      ')/ROWS/ROW
				</qry:xquery>
				<qry:out>
					<qry:attribute type="Nomad.NSystem.Int" value="$r/@IDD" name="id"/>
					<qry:attribute type="Nomad.NSystem.Int" value="$r/@IDD" name="value"/>
					<qry:attribute type="Nomad.NSystem.String" value="$r/@E_NUMERO_LEGAJO" name="code1"/>
					<qry:attribute type="Nomad.NSystem.String" value="$r/@D_APE_Y_NOM" name="text1"/>
				</qry:out>
			</qry:select>
		</qry:define>
		<qry:define declare="&lt;helper-mess ID=&quot;&quot; CODE1=&quot;&quot; TEXT=&quot;&quot; oi_evento=&quot;3&quot;/&gt;" name="HELP">
			<qry:main doc="SOURCE">
				<qry:element name="ROWS">
					<qry:attribute type="Nomad.NSystem.String" value="#SOURCE:helper-mess/@oi_evento" name="OI_EVENTO"/>
					<qry:element name="ROWS">
						<qry:insert-select name="RS1" doc-path="#SOURCE:"/>
					</qry:element>
				</qry:element>
			</qry:main>
			<qry:select doc="SOURCE" name="RS1">
				<qry:xquery>
					for $r in sql('
			SELECT
				PER02_PERSONAL_EMP.oi_personal_emp AS IDD, PER02_PERSONAL_EMP.e_numero_legajo, PER01_PERSONAL.d_ape_y_nom
			FROM
				PER02_PERSONAL_EMP, PER01_PERSONAL, EVA02_EVALUACION 
			JOIN
				PER02_PERSONAL_EMP.oi_personal_emp INNER EVA02_EVALUACION.oi_personal_emp,
      	PER02_PERSONAL_EMP.oi_personal INNER PER01_PERSONAL.oi_personal 
			WHERE
				EVA02_EVALUACION.oi_evento = {%= #SOURCE:helper-mess/@oi_evento %}
      ')/ROWS/ROW
				</qry:xquery>
				<qry:out>
					<qry:element name="ROW">
						<qry:attribute type="Nomad.NSystem.String" value="#SOURCE:helper-mess/@oi_evento" name="OI_EVENTO"/>
						<qry:attribute type="Nomad.NSystem.Int" value="$r/@IDD" name="id"/>
						<qry:attribute type="Nomad.NSystem.Int" value="$r/@IDD" name="value"/>
						<qry:attribute type="Nomad.NSystem.String" value="$r/@E_NUMERO_LEGAJO" name="code1"/>
						<qry:attribute type="Nomad.NSystem.String" value="$r/@D_APE_Y_NOM" name="text1"/>
					</qry:element>
				</qry:out>
			</qry:select>
		</qry:define>
		<doc:define name="RS"/>
	</flow:declare>
	<flow:form name="NucleusRH.Base.Evaluacion.Evaluacion.EVALUACION.guia.form:SHOW" extends="nomad.parent.guia.form:SHOW" parent-doc="INVAL" doc="SOURCE" mode="SHOW" form-class="NucleusRH.Base.Evaluacion.Evaluacion.EVALUACION.guia.form">
		<flow:comment/>
	</flow:form>
</flow:flow>
