<flow:flow name="NucleusSuite.Base.Cliente.Clientes.CLIENTE.ESTADO_CAMBIO.guia.flow" xmlns:doc="nomad_engine.form" xmlns:qry="nomad_engine.form" xmlns:flow="nomad_engine.form">
	<flow:info label="Flow guia para NucleusRH.Base.Capacitacion.Requerimientos.ADMIN.Motivo.form"/>
	<flow:main doc="SOURCE">
		<flow:action name="APROBAR">
			<doc:set-attribute from-value="A" to-attr-path="#SOURCE:@action"/>
			<flow:open-form mode="APROBAR" form-class="NucleusRH.Base.Capacitacion.Requerimientos.ADMIN.Motivo.form" doc-path="#SOURCE:" parent-doc-path="#SOURCE:"/>
		</flow:action>
		<flow:action name="RECHAZAR">
			<doc:set-attribute from-value="R" to-attr-path="#SOURCE:@action"/>
			<flow:open-form mode="RECHAZAR" form-class="NucleusRH.Base.Capacitacion.Requerimientos.ADMIN.Motivo.form" doc-path="#SOURCE:" parent-doc-path="#SOURCE:"/>
		</flow:action>
	</flow:main>
	<flow:declare>
		<doc:define name="NADA"/>
	</flow:declare>
	<flow:form name="NucleusRH.Base.Capacitacion.Requerimientos.ADMIN.Motivo.form:APROBAR" mode="APROBAR" form-class="NucleusRH.Base.Capacitacion.Requerimientos.ADMIN.Motivo.form" parent-doc="INVAL" doc="SOURCE">
		<flow:action name="ACCEPT">
			<flow:exit-flow return-path="#SOURCE:"/>
		</flow:action>
		<flow:action name="CANCEL">
			<flow:exit-flow return-path="#NADA:"/>
		</flow:action>
	</flow:form>
	<flow:form name="NucleusRH.Base.Capacitacion.Requerimientos.ADMIN.Motivo.form:RECHAZAR" mode="RECHAZAR" form-class="NucleusRH.Base.Capacitacion.Requerimientos.ADMIN.Motivo.form" parent-doc="INVAL" doc="SOURCE">
		<flow:action name="ACCEPT">
			<flow:exit-flow return-path="#SOURCE:"/>
		</flow:action>
		<flow:action name="CANCEL">
			<flow:exit-flow return-path="#NADA:"/>
		</flow:action>
	</flow:form>
</flow:flow>
