<flow:flow xmlns:doc="nomad_engine.form" xmlns:qry="nomad_engine.form" xmlns:flow="nomad_engine.form" name="ayudaSecuencia.flow">
	<flow:info label="ayudaSecuencia.flow"/>
	<flow:main doc="SOURCE">
		<flow:action name="HELP">
			<flow:open-form parent-doc-path="#SOURCE:" doc-path="#SOURCE:" mode="SHOW" form-class="NucleusRH.Base.Liquidacion.Conceptos.ayudaSecuencia.form"/>
		</flow:action>
	</flow:main>
	<flow:declare/>
	<flow:form parent-doc="INVAL" doc="SOURCE" mode="SHOW" name="NucleusRH.Base.Liquidacion.Conceptos.ayudaSecuencia.form" form-class="NucleusRH.Base.Liquidacion.Conceptos.ayudaSecuencia.form">
		<flow:action name="BACK">
			<flow:exit-flow return-path="#INVAL:"/>
		</flow:action>
	</flow:form>
</flow:flow>
