<flow:flow extends="NucleusRH.Base.Liquidacion.Conceptos.CONCEPTO.guia.autoflow" xmlns:doc="nomad_engine.form" xmlns:qry="nomad_engine.form" xmlns:flow="nomad_engine.form" name="NucleusRH.Base.Liquidacion.Conceptos.CONCEPTO.guia">
	<flow:info label="Flow guia para NucleusRH.Base.Liquidacion.Conceptos.CONCEPTO"/>
	<flow:main doc="SOURCE"/>
	<flow:declare>
		<qry:define declare="&lt;helper-mess id=&quot;0002&quot; /&gt;" name="X2C">
			<qry:main doc="SOURCE">
				<qry:element name="ROW">
					<qry:insert-select doc-path="#SOURCE:" name="RS1"/>
				</qry:element>
			</qry:main>
			<qry:select doc="SOURCE" name="RS1">
				<qry:xquery>
					for $r in sql('SELECT t.oi_concepto as ID, t.c_concepto as CODE, t.d_concepto as TEXT, SEC.policy  FROM LIQ14_CONCEPTOS as t, NMD_SECURITY(class=\'NucleusRH.Base.Liquidacion.Conceptos.CONCEPTO\') as SEC JOIN t.oi_concepto LEFT OUTER SEC.id  WHERE t.c_concepto={#SOURCE:helper-mess/@ID} ORDER BY CODE asc')/ROWS/ROW
				</qry:xquery>
				<qry:out>
					<qry:attribute value="$r/@CODE" name="id"/>
					<qry:attribute value="$r/@CODE" name="value"/>
					<qry:attribute value="$r/@CODE" name="code"/>
					<qry:attribute value="$r/@TEXT" name="text"/>
				</qry:out>
			</qry:select>
		</qry:define>
		<qry:define name="C2X">
			<qry:main doc="SOURCE">
				<qry:append-doc doc-path="#SOURCE:helper-mess" name="INDOC"/>
				<qry:element name="ROW">
					<qry:insert-select doc-path="#SOURCE:" name="RS1"/>
				</qry:element>
			</qry:main>
			<qry:select doc="SOURCE" name="RS1">
				<qry:xquery>
					for $r in sql('SELECT t.oi_concepto as ID, t.c_concepto as CODE, t.d_concepto as TEXT, SEC.policy  FROM LIQ14_CONCEPTOS as t, NMD_SECURITY(class=\'NucleusRH.Base.Liquidacion.Conceptos.CONCEPTO\') as SEC JOIN t.oi_concepto LEFT OUTER SEC.id  WHERE t.c_concepto={substring_before(#INDOC:@CODE,\'-\')}  ORDER BY CODE asc')/ROWS/ROW
				</qry:xquery>
				<qry:out>
					<qry:attribute value="$r/@policy" name="policy"/>
					<qry:attribute value="''" name="SUB_SEARCH"/>
					<qry:attribute value="''" name="PARENTID"/>
					<qry:attribute value="$r/@CODE" name="id"/>
					<qry:attribute value="$r/@CODE" name="value"/>
					<qry:attribute value="$r/@CODE" name="code"/>
					<qry:attribute value="$r/@TEXT" name="text"/>
				</qry:out>
			</qry:select>
		</qry:define>
		<qry:define name="HELP">
			<qry:main doc="SOURCE">
				<qry:element name="ROWS">
					<qry:insert-select doc-path="#SOURCE:" name="RS1"/>
				</qry:element>
			</qry:main>
			<qry:select doc="SOURCE" name="RS1">
				<qry:xquery>
					for $r in sql('SELECT t.oi_concepto as ID, t.c_concepto as CODE, t.d_concepto as TEXT, SEC.policy  FROM LIQ14_CONCEPTOS as t, NMD_SECURITY(class=\'NucleusRH.Base.Liquidacion.Conceptos.CONCEPTO\') as SEC JOIN t.oi_concepto LEFT OUTER SEC.id  ORDER BY CODE asc')/ROWS/ROW
				</qry:xquery>
				<qry:out>
					<qry:element name="ROW">
						<qry:attribute value="$r/@CODE" name="id"/>
						<qry:attribute value="$r/@CODE" name="value"/>
						<qry:attribute value="$r/@CODE" name="code"/>
						<qry:attribute value="$r/@TEXT" name="text"/>
						<qry:attribute value="$r/@policy" name="policy"/>
					</qry:element>
				</qry:out>
			</qry:select>
		</qry:define>
	</flow:declare>
</flow:flow>
