<flow:flow xmlns:flow="nomad_engine.flow" name="NucleusRH.Base.Liquidacion.Conceptos.MigCodLsdAfip.flow" extends="Nomad.Base.flow">
	<flow:info label="Flow para NucleusRH.Base.Liquidaicon.Consumos"/>
	<flow:declare/>
	<flow:main doc="SOURCE">
		<flow:action name="initialize">
			<flow:open-form form-class="NucleusRH.Base.Liquidacion.Conceptos.MigCodLsdAfip.form" doc-path="#FILTERDATA:" mode="SHOW"/>
		</flow:action>
	</flow:main>
	<flow:form form-class="NucleusRH.Base.Liquidacion.Conceptos.MigCodLsdAfip.form" name="NucleusRH.Base.Liquidacion.Conceptos.MigCodLsdAfip.form:SHOW" doc="PARAMETERS" mode="SHOW">
		<flow:action name="ACCEPT">
			<flow:exec-method class="NucleusRH.Base.Liquidacion.MigCodLsdAfip.EQUIVALENCIA" method="ImportarCodLsdAfip" out-attr-path="#BATCHDOC:@batch-id" priority="5"/>
			<flow:open-form form-class="nomad.base.batchtolist.form" mode="BATCH" doc-path="#BATCHDOC:"/>
		</flow:action>
		<flow:action name="BACK">
			<flow:close-form/>
		</flow:action>
	</flow:form>
</flow:flow>
