<flow:flow name="NucleusRH.Base.Liquidacion.Reporte.Pivot.flow" extends="NucleusRH.Base.Personal.Reportes.Pivot.flow" xmlns:doc="nomad_engine.doc" xmlns:qry="nomad_engine.qry" xmlns:flow="nomad_engine.flow">
	<flow:info label="Flow para NucleusRH.Base.Personal.Reportes.Legajo"/>
	<flow:declare/>
	<flow:main doc="SOURCE">
		<flow:action name="initialize">
			<flow:log text-path="#SOURCE:" text="OOOO"/>
			<flow:open-form form-class="NucleusRH.Base.Liquidacion.Reporte.Pivot.form" doc-path="#SOURCE:" mode="FILTER"/>
		</flow:action>
	</flow:main>
	<flow:form form-class="NucleusRH.Base.Liquidacion.Reporte.Pivot.form" name="NucleusRH.Base.Liquidacion.Reporte.Pivot.form" extends="NucleusRH.Base.Personal.Reportes.Pivot.form" doc="FILTERDATA" mode="FILTER"/>
</flow:flow>
