<flow:flow xmlns:flow="nomad_engine.flow" xmlns:qry="nomad_engine.qry" extends="Nomad.simple.guia.flow" name="NucleusRH.Base.Liquidacion.LegajoEmpresaDDO.PER_EMP_DDO.guia">
	<flow:info label="Flow guia para NucleusRH.Base.Liquidacion.LegajoEmpresaDDO.PER_EMP_DDO"/>
	<flow:main doc="SOURCE">
		<flow:action name="OPEN-GUIA">
			<flow:open-form parent-doc-path="#SOURCE:" doc-path="#SOURCE:" mode="SHOW" form-class="NucleusRH.Base.Liquidacion.LegajoEmpresaDDO.PER_EMP_DDO.guia.autoform"/>
		</flow:action>
	</flow:main>
	<flow:declare>
		<qry:define declare="&lt;helper-mess ID=&quot;345&quot; Liquidacion=&quot;107&quot;/&gt;&#13;&#10;" name="X2C">
			<qry:main doc="SOURCE">
				<qry:element name="ROW">
					<qry:insert-select doc-path="#SOURCE:" name="RS1"/>
				</qry:element>
			</qry:main>
			<qry:select doc="SOURCE" name="RS1">
				<qry:xquery>
					for $r in sql('
SELECT
LIQ97_PERSONAL_EMP.d_ape_y_nom as TEXT, 
LIQ97_PERSONAL_EMP.e_numero_legajo as CODE, 
LIQ20_TOT_LIQ_PER.oi_liquidacion_ddo,
LIQ97_PERSONAL_EMP.oi_per_emp_ddo as ID,
SEC.policy
FROM
LIQ97_PERSONAL_EMP , LIQ20_TOT_LIQ_PER , LIQ99_RECIBOS,
NMD_SECURITY(class=\'NucleusRH.Base.Liquidacion.LegajoEmpresaDDO.PER_EMP_DDO\') as SEC
JOIN
LIQ97_PERSONAL_EMP.oi_per_emp_ddo INNER LIQ20_TOT_LIQ_PER.oi_per_emp_ddo,
LIQ99_RECIBOS.oi_tot_liq_per INNER LIQ20_TOT_LIQ_PER.oi_tot_liq_per,
LIQ97_PERSONAL_EMP.oi_per_emp_ddo LEFT OUTER SEC.id
WHERE
LIQ99_RECIBOS.oi_liquidacion_ddo = {#SOURCE:helper-mess/@Liquidacion}
AND 
LIQ97_PERSONAL_EMP.oi_per_emp_ddo = {#SOURCE:helper-mess/@ID}
ORDER BY CODE asc')/ROWS/ROW
				</qry:xquery>
				<qry:out>
					<qry:attribute value="$r/@ID" name="id"/>
					<qry:attribute value="$r/@ID" name="value"/>
					<qry:attribute value="$r/@CODE" name="code"/>
					<qry:attribute value="$r/@TEXT" name="text"/>
				</qry:out>
			</qry:select>
		</qry:define>
		<qry:define name="C2X" declare="&lt;helper-mess CODE=&quot;1&quot; Liquidacion=&quot;107&quot;/&gt;&#13;&#10;">
			<qry:main doc="SOURCE">
				<qry:append-doc doc-path="#SOURCE:helper-mess" name="INDOC"/>
				<qry:element name="ROW">
					<qry:insert-select doc-path="#SOURCE:" name="RS1"/>
				</qry:element>
			</qry:main>
			<qry:select doc="SOURCE" name="RS1">
				<qry:xquery>
					for $r in sql('
SELECT
LIQ97_PERSONAL_EMP.d_ape_y_nom as TEXT, 
LIQ97_PERSONAL_EMP.e_numero_legajo as CODE, 
LIQ20_TOT_LIQ_PER.oi_liquidacion_ddo,
LIQ97_PERSONAL_EMP.oi_per_emp_ddo as ID,
SEC.policy
FROM
LIQ97_PERSONAL_EMP , LIQ20_TOT_LIQ_PER ,LIQ99_RECIBOS,
NMD_SECURITY(class=\'NucleusRH.Base.Liquidacion.LegajoEmpresaDDO.PER_EMP_DDO\') as SEC
JOIN
LIQ97_PERSONAL_EMP.oi_per_emp_ddo INNER LIQ20_TOT_LIQ_PER.oi_per_emp_ddo,
LIQ99_RECIBOS.oi_tot_liq_per INNER LIQ20_TOT_LIQ_PER.oi_tot_liq_per,
LIQ97_PERSONAL_EMP.oi_per_emp_ddo LEFT OUTER SEC.id
WHERE
LIQ99_RECIBOS.oi_liquidacion_ddo = {#SOURCE:helper-mess/@Liquidacion}
AND 
LIQ97_PERSONAL_EMP.e_numero_legajo = {substring_before(#INDOC:@CODE,\'-\')}
ORDER BY CODE asc')/ROWS/ROW
				</qry:xquery>
				<qry:out>
					<qry:attribute value="$r/@policy" name="policy"/>
					<qry:attribute value="''" name="SUB_SEARCH"/>
					<qry:attribute value="''" name="PARENTID"/>
					<qry:attribute value="$r/@ID" name="id"/>
					<qry:attribute value="$r/@ID" name="value"/>
					<qry:attribute value="$r/@CODE" name="code"/>
					<qry:attribute value="$r/@TEXT" name="text"/>
				</qry:out>
			</qry:select>
		</qry:define>
		<qry:define name="HELP" declare="&lt;helper-mess Liquidacion=&quot;107&quot;/&gt;&#13;&#10;">
			<qry:main doc="SOURCE">
				<qry:element name="ROWS">
					<qry:insert-select doc-path="#SOURCE:" name="RS1"/>
				</qry:element>
			</qry:main>
			<qry:select doc="SOURCE" name="RS1">
				<qry:xquery>
					for $r in sql('
				SELECT
LIQ97_PERSONAL_EMP.d_ape_y_nom as TEXT, 
LIQ97_PERSONAL_EMP.e_numero_legajo as CODE, 
LIQ20_TOT_LIQ_PER.oi_liquidacion_ddo,
LIQ97_PERSONAL_EMP.oi_per_emp_ddo as ID,
SEC.policy
FROM
LIQ97_PERSONAL_EMP , LIQ20_TOT_LIQ_PER ,LIQ99_RECIBOS,
NMD_SECURITY(class=\'NucleusRH.Base.Liquidacion.LegajoEmpresaDDO.PER_EMP_DDO\') as SEC

JOIN
LIQ97_PERSONAL_EMP.oi_per_emp_ddo INNER LIQ20_TOT_LIQ_PER.oi_per_emp_ddo, 
LIQ99_RECIBOS.oi_tot_liq_per INNER LIQ20_TOT_LIQ_PER.oi_tot_liq_per,
LIQ97_PERSONAL_EMP.oi_per_emp_ddo LEFT OUTER SEC.id
WHERE
LIQ99_RECIBOS.oi_liquidacion_ddo = {#SOURCE:helper-mess/@Liquidacion}
ORDER BY CODE asc
				
')/ROWS/ROW
				</qry:xquery>
				<qry:out>
					<qry:element name="ROW">
						<qry:attribute value="$r/@ID" name="id"/>
						<qry:attribute value="$r/@ID" name="value"/>
						<qry:attribute value="$r/@CODE" name="code"/>
						<qry:attribute value="$r/@TEXT" name="text"/>
						<qry:attribute value="$r/@policy" name="policy"/>
					</qry:element>
				</qry:out>
			</qry:select>
		</qry:define>
	</flow:declare>
	<flow:form extends="nomad.simple.guia.form:SHOW" parent-doc="INVAL" doc="SOURCE" mode="SHOW" name="NucleusRH.Base.Liquidacion.LegajoEmpresaDDO.PER_EMP_DDO.guia.autoform:SHOW" form-class="NucleusRH.Base.Liquidacion.LegajoEmpresaDDO.PER_EMP_DDO.guia.autoform"/>
</flow:flow>
