<flow:flow xmlns:flow="nomad_engine.flow" xmlns:doc="nomad_engine.doc" name="NucleusRH.Base.Tiempos_Trabajados.LicenciasSec.LICENCIA_SEC.flow">
	<flow:declare>
		<doc:define name="XML_RESULT">
			<RESULT/>
		</doc:define>
	</flow:declare>
	<flow:main doc="SOURCE">
		<flow:action name="ValidarNovedad">
			<flow:exec-method out-doc="XML_RESULT" class="NucleusRH.Base.Tiempos_Trabajados.NovedadesSec.NOVEDAD_SEC" out-type="Nomad.NSystem.Proxy.NomadXML" method="ValidarNovedad">
				<flow:param name="xmlLicencia" doc-path="#SOURCE:" type="Nomad.NSystem.Proxy.NomadXML" mode="in"/>
			</flow:exec-method>
			<flow:exit-flow return-path="#XML_RESULT:"/>
		</flow:action>
	</flow:main>
</flow:flow>
