<flow:flow xmlns:flow="nomad_engine.flow" xmlns:doc="nomad_engine.doc" xmlns:qry="nomad_engine.qry" extends="NucleusWF.Base.Definicion.Organigramas.ESTRUCTURA.MAIN.STD.autoflow" default_action="DESIGN" name="NucleusWF.Base.Definicion.Organigramas.ESTRUCTURA.flow">
	<flow:info label="Flow guia para NucleusWF.Base.Definicion.Organigramas.ESTRUCTURA"/>
	<flow:declare>
		<doc:define name="PARENT"/>
		<doc:define name="SELECT">
			<DATA id=""/>
		</doc:define>
		<qry:define name="MAXCODE" declare="&lt;DATA PARENT=&quot;103&quot; /&gt;">
			<qry:main doc="SOURCE">
				<ROW max-value="1">
					<qry:insert-select name="sql1" doc-path="#SOURCE:DATA"/>
				</ROW>
			</qry:main>
			<qry:select name="sql1" doc="SOURCE">
				<qry:xquery>
					for $r in SQL('
select
  max(right(\'0000000000\'||WRK05_ESTRUCTURA.c_estructura,10)) as cod
from
  WRK05_ESTRUCTURA
where             
	 WRK05_ESTRUCTURA.oi_organigrama={$SOURCE/@PARENT}
  			')/ROWS/ROW
				</qry:xquery>
				<qry:out>
					<qry:attribute name="max-value" value="number($r/@cod)+1"/>
				</qry:out>
			</qry:select>
		</qry:define>
		<doc:define name="AUX"/>
		<qry:define name="ROLES" declare="&lt;DATA PARENT=&quot;103&quot; /&gt;">
			<qry:main doc="SOURCE">
				<ROWS>
					<qry:insert-select name="sql1" doc-path="#SOURCE:DATA"/>
				</ROWS>
			</qry:main>
			<qry:select name="sql1" doc="SOURCE">
				<qry:xquery>
					for $r in SQL('
select
  WRK05_ROLES.c_role,
  WRK05_ROLES.d_role
from
  WRK05_ROLES
where               
	WRK05_ROLES.c_role!=\'OWNER\' and
	WRK05_ROLES.oi_organigrama={$SOURCE/@PARENT}
  			')/ROWS/ROW
				</qry:xquery>
				<qry:out>
					<option>
						<qry:attribute name="value" value="$r/@c_role"/>
						<qry:attribute name="text" value="$r/@d_role"/>
					</option>
				</qry:out>
			</qry:select>
		</qry:define>
		<doc:define name="ROLES"/>
	</flow:declare>
	<flow:main doc="SOURCE">
		<flow:action name="DESIGN">
			<doc:set-attribute from-attr-path="#SOURCE:@PARENT" to-attr-path="#SELECT:@PARENT"/>
			<flow:open-form mode="DESIGN" parent-doc-path="#SOURCE:" doc-path="#SELECT:" form-class="NucleusWF.Base.Definicion.Organigramas.ESTRUCTURA.form"/>
		</flow:action>
		<flow:action name="SHOW">
			<doc:set-attribute from-attr-path="#SOURCE:@PARENT" to-attr-path="#SELECT:@PARENT"/>
			<flow:open-form mode="SHOW" parent-doc-path="#SOURCE:" doc-path="#SELECT:" form-class="NucleusWF.Base.Definicion.Organigramas.ESTRUCTURA.form"/>
		</flow:action>
		<flow:action name="ADD">
			<doc:set-attribute from-attr-path="#SOURCE:@PARENT" to-attr-path="#SELECT:@PARENT"/>
			<doc:set-attribute from-attr-path="#SOURCE:@ESTR-PARENT" to-attr-path="#SELECT:@ESTR-PARENT"/>
			<doc:set-attribute from-attr-path="#SOURCE:@ORDER" to-attr-path="#SELECT:@ORDER"/>
			<flow:open-form mode="NEW" parent-doc-path="#SELECT:" doc-path="#SELECT:" form-class="NucleusWF.Base.Definicion.Organigramas.ESTRUCTURA.MAIN.STD_REG.form"/>
		</flow:action>
		<flow:action name="DEL">
			<flow:exec-method class="NucleusWF.Base.Definicion.Organigramas.ORGANIGRAMA" method="EstructuraDEL">
				<flow:param attr-path="#SOURCE:@PARENT" type="Nomad.NSystem.Int" mode="in" name="oi_organigrama"/>
				<flow:param attr-path="#SOURCE:@ID" type="Nomad.NSystem.Int" mode="in" name="oi_estructura"/>
			</flow:exec-method>
			<flow:exit-flow return-path="#SOURCE:"/>
		</flow:action>
		<flow:action name="COPY">
			<flow:exec-method class="NucleusWF.Base.Definicion.Organigramas.ORGANIGRAMA" method="EstructuraCOPY">
				<flow:param attr-path="#SOURCE:@PARENT" type="Nomad.NSystem.Int" mode="in" name="oi_organigrama"/>
				<flow:param attr-path="#SOURCE:@ID" type="Nomad.NSystem.Int" mode="in" name="oi_estructura"/>
				<flow:param type="Nomad.NSystem.String" attr-path="#SOURCE:@ESTR-PARENT" mode="in" name="c_estr_padre"/>
				<flow:param attr-path="#SOURCE:@ORDER" type="Nomad.NSystem.Int" mode="in" name="order"/>
			</flow:exec-method>
			<flow:exit-flow return-path="#SOURCE:"/>
		</flow:action>
		<flow:action name="PASTE">
			<flow:exec-method class="NucleusWF.Base.Definicion.Organigramas.ORGANIGRAMA" method="EstructuraPASTE">
				<flow:param attr-path="#SOURCE:@PARENT" type="Nomad.NSystem.Int" mode="in" name="oi_organigrama"/>
				<flow:param attr-path="#SOURCE:@ID" type="Nomad.NSystem.Int" mode="in" name="oi_estructura"/>
				<flow:param type="Nomad.NSystem.String" attr-path="#SOURCE:@ESTR-PARENT" mode="in" name="c_estr_padre"/>
				<flow:param attr-path="#SOURCE:@ORDER" type="Nomad.NSystem.Int" mode="in" name="order"/>
			</flow:exec-method>
			<flow:exit-flow return-path="#SOURCE:"/>
		</flow:action>
		<flow:action name="LEFT">
			<flow:exec-method method="EstructuraLEFT" class="NucleusWF.Base.Definicion.Organigramas.ORGANIGRAMA">
				<flow:param attr-path="#SOURCE:@PARENT" type="Nomad.NSystem.Int" mode="in" name="oi_organigrama"/>
				<flow:param attr-path="#SOURCE:@ID" type="Nomad.NSystem.Int" mode="in" name="oi_estructura"/>
			</flow:exec-method>
			<flow:exit-flow return-path="#SOURCE:"/>
		</flow:action>
		<flow:action name="RIGHT">
			<flow:exec-method method="EstructuraRIGHT" class="NucleusWF.Base.Definicion.Organigramas.ORGANIGRAMA">
				<flow:param attr-path="#SOURCE:@PARENT" type="Nomad.NSystem.Int" mode="in" name="oi_organigrama"/>
				<flow:param attr-path="#SOURCE:@ID" type="Nomad.NSystem.Int" mode="in" name="oi_estructura"/>
			</flow:exec-method>
			<flow:exit-flow return-path="#SOURCE:"/>
		</flow:action>
		<flow:action name="DOWN">
			<flow:exec-method method="EstructuraDOWN" class="NucleusWF.Base.Definicion.Organigramas.ORGANIGRAMA">
				<flow:param attr-path="#SOURCE:@PARENT" type="Nomad.NSystem.Int" mode="in" name="oi_organigrama"/>
				<flow:param attr-path="#SOURCE:@ID" type="Nomad.NSystem.Int" mode="in" name="oi_estructura"/>
			</flow:exec-method>
			<flow:exit-flow return-path="#SOURCE:"/>
		</flow:action>
		<flow:action name="UP">
			<flow:exec-method method="EstructuraUP" class="NucleusWF.Base.Definicion.Organigramas.ORGANIGRAMA">
				<flow:param attr-path="#SOURCE:@PARENT" type="Nomad.NSystem.Int" mode="in" name="oi_organigrama"/>
				<flow:param attr-path="#SOURCE:@ID" type="Nomad.NSystem.Int" mode="in" name="oi_estructura"/>
			</flow:exec-method>
			<flow:exit-flow return-path="#SOURCE:"/>
		</flow:action>
		<flow:action name="PUBLICAR">
			<flow:exec-method out-attr-path="#SELECT:@batch-id" priority="4" method="Publicar" class="NucleusWF.Base.Definicion.Organigramas.ORGANIGRAMA">
				<flow:param attr-path="#SOURCE:@PARENT" type="Nomad.NSystem.Int" mode="in" name="oi_organigrama"/>
			</flow:exec-method>
			<flow:open-form form-class="Nomad.base.batchtolist.form" mode="BATCH" parent-doc-path="#SELECT:" doc-path="#SELECT:"/>
		</flow:action>
	</flow:main>
	<flow:form name="NucleusWF.BaseNucleusWF.Base.Definicion.Organigramas.ESTRUCTURA.form:DESIGN" mode="DESIGN" parent-doc="PARENT" doc="SOURCE" form-class="NucleusWF.Base.Definicion.Organigramas.ESTRUCTURA.form">
		<flow:action name="on-show"/>
		<flow:action name="BACK">
			<flow:close-form/>
		</flow:action>
	</flow:form>
	<flow:form name="NucleusWF.BaseNucleusWF.Base.Definicion.Organigramas.ESTRUCTURA.form:SHOW" mode="SHOW" parent-doc="PARENT" doc="SOURCE" form-class="NucleusWF.Base.Definicion.Organigramas.ESTRUCTURA.form">
		<flow:action name="on-show"/>
		<flow:action name="BACK">
			<flow:close-form/>
		</flow:action>
	</flow:form>
	<flow:form name="NucleusWF.Base.Definicion.Organigramas.ESTRUCTURA.MAIN.STD_REG.form:NEW2" extends="NucleusWF.Base.Definicion.Organigramas.ESTRUCTURA.MAIN.STD_REG.form:NEW" mode="NEW" parent-doc="PARENT" doc="SOURCE" form-class="NucleusWF.Base.Definicion.Organigramas.ESTRUCTURA.MAIN.STD_REG.form">
		<flow:action name="INT-CREATE">
			<doc:load-qry output-doc="AUX" input-doc-path="#SELECT:" qry="MAXCODE"/>
			<doc:new-object doc="DDO" class="NucleusWF.Base.Definicion.Organigramas.ESTRUCTURA"/>
			<doc:set-attribute from-attr-path="#SELECT:@ESTR-PARENT" to-attr-path="#DDO:@c_estr_padre"/>
			<doc:set-attribute to-attr-path="#DDO:@e_orden" from-attr-path="#SELECT:@ORDER"/>
			<doc:set-attribute to-attr-path="#DDO:@c_estructura" from-attr-path="#AUX:@max-value"/>
		</flow:action>
		<flow:action name="on-show">
			<doc:load-qry output-doc="ROLES" input-doc-path="#SELECT:" qry="ROLES"/>
			<flow:attach-doc doc-path="#ROLES:" attach-id="ROLES"/>
		</flow:action>
	</flow:form>
	<flow:form name="NucleusWF.Base.Definicion.Organigramas.ESTRUCTURA.MAIN.STD_REG.form:EDIT2" extends="NucleusWF.Base.Definicion.Organigramas.ESTRUCTURA.MAIN.STD_REG.form:EDIT" mode="EDIT" parent-doc="PARENT" doc="SOURCE" form-class="NucleusWF.Base.Definicion.Organigramas.ESTRUCTURA.MAIN.STD_REG.form">
		<flow:action name="on-show">
			<doc:load-qry output-doc="ROLES" input-doc-path="#SELECT:" qry="ROLES"/>
			<flow:attach-doc doc-path="#ROLES:" attach-id="ROLES"/>
		</flow:action>
	</flow:form>
	<flow:form form-class="Nomad.base.batchtolist.form" name="Nomad.base.batchtolist.form:BATCH" mode="BATCH" parent-doc="PARENT" doc="SOURCE">
		<flow:action name="on-show"/>
		<flow:action name="EXIT">
			<flow:exit-flow return-path="#SELECT:"/>
		</flow:action>
	</flow:form>
</flow:flow>
