<flow:flow xmlns:flow="nomad_engine.flow" xmlns:qry="nomad_engine.qry" name="NucleusRH.Base.Organizacion.Departamento.DEPARTAMENTO.EMPRESA.guia.flow" extends="Nomad.simple.guia.flow">
	<flow:main doc="SOURCE">
		<flow:action name="OPEN-GUIA">
			<flow:open-form form-class="NucleusRH.Base.Organizacion.Departamentos.DEPARTAMENTO.EMPRESA.guia.form" parent-doc-path="#SOURCE:" doc-path="#SOURCE:" mode="SHOW"/>
		</flow:action>
	</flow:main>
	<flow:declare>
		<qry:define declare="&lt;helper-mess oi_empresa=&quot;1&quot; id=&quot;1&quot;/&gt;" name="X2C">
			<qry:main doc="SOURCE">
				<qry:element name="ROW">
					<qry:insert-select name="RS1" doc-path="#SOURCE:helper-mess"/>
				</qry:element>
			</qry:main>
			<qry:select name="RS1" doc="SOURCE">
				<qry:xquery>
					for $r in sql('
				SELECT ORG51_DEPARTAMENTOS.oi_departamento,
				ORG51_DEPARTAMENTOS.c_departamento,
				ORG51_DEPARTAMENTOS.d_departamento
				FROM ORG51_DEPARTAMENTOS
				WHERE ORG51_DEPARTAMENTOS.oi_empresa = {#SOURCE:@oi_empresa}
				AND ORG51_DEPARTAMENTOS.oi_departamento = {#SOURCE:@id}
			')ROWS/ROW
				</qry:xquery>
				<qry:out>
					<qry:attribute value="$r/@oi_departamento" name="id"/>
					<qry:attribute value="$r/@oi_departamento" name="value"/>
					<qry:attribute value="$r/@c_departamento" name="code"/>
					<qry:attribute value="$r/@d_departamento" name="text"/>
					<qry:insert-select doc-path="." name="SECURITY"/>
				</qry:out>
			</qry:select>
			<qry:select doc="PARAM" name="SECURITY">
				<qry:xquery>
					for $r in sql('
				SELECT NMD_SECURITY.policy 
				FROM NMD_SECURITY 
				WHERE NMD_SECURITY.class=\'NucleusRH.Base.Organizacion.Departamentos.DEPARTAMENTO\' 
				AND NMD_SECURITY.id={#PARAM:@id}
			')/ROWS/ROW
				</qry:xquery>
				<qry:out>
					<qry:attribute value="$r/@policy" name="policy"/>
				</qry:out>
			</qry:select>
		</qry:define>
		<qry:define declare="&lt;helper-mess oi_empresa=&quot;1&quot; code=&quot;jvi&quot;/&gt;" name="C2X">
			<qry:main doc="SOURCE">
				<qry:element name="ROW">
					<qry:insert-select name="RS1" doc-path="#SOURCE:helper-mess"/>
				</qry:element>
			</qry:main>
			<qry:select name="RS1" doc="SOURCE">
				<qry:xquery>
					for $r in sql('
				SELECT ORG51_DEPARTAMENTOS.oi_departamento,
				ORG51_DEPARTAMENTOS.c_departamento,
				ORG51_DEPARTAMENTOS.d_departamento
				FROM ORG51_DEPARTAMENTOS
				WHERE ORG51_DEPARTAMENTOS.oi_empresa = {#SOURCE:@oi_empresa}
				AND ORG51_DEPARTAMENTOS.c_departamento = {substring_before(#SOURCE:@CODE,\'-\')}			
			')ROWS/ROW
				</qry:xquery>
				<qry:out>
					<qry:attribute value="$r/@oi_departamento" name="id"/>
					<qry:attribute value="$r/@oi_departamento" name="value"/>
					<qry:attribute value="$r/@c_departamento" name="code"/>
					<qry:attribute value="$r/@d_departamento" name="text"/>
					<qry:insert-select doc-path="." name="SECURITY"/>
				</qry:out>
			</qry:select>
			<qry:select doc="PARAM" name="SECURITY">
				<qry:xquery>
					for $r in sql('
				SELECT NMD_SECURITY.policy 
				FROM NMD_SECURITY 
				WHERE NMD_SECURITY.class=\'NucleusRH.Base.Organizacion.Departamentos.DEPARTAMENTO\' 
				AND NMD_SECURITY.id={#PARAM:@id}
			')/ROWS/ROW
				</qry:xquery>
				<qry:out>
					<qry:attribute value="$r/@policy" name="policy"/>
				</qry:out>
			</qry:select>
		</qry:define>
		<qry:define declare="&lt;helper-mess oi_empresa=&quot;1&quot; /&gt;" name="HELP">
			<qry:main doc="SOURCE">
				<qry:element name="ROWS">
					<qry:insert-select name="RS1" doc-path="#SOURCE:helper-mess"/>
				</qry:element>
			</qry:main>
			<qry:select name="RS1" doc="SOURCE">
				<qry:xquery>
					for $r in sql('
				SELECT ORG51_DEPARTAMENTOS.oi_departamento,
				ORG51_DEPARTAMENTOS.c_departamento,
				ORG51_DEPARTAMENTOS.d_departamento
				FROM ORG51_DEPARTAMENTOS
				WHERE ORG51_DEPARTAMENTOS.oi_empresa = {#SOURCE:@oi_empresa}
 
			')ROWS/ROW
				</qry:xquery>
				<qry:out>
					<qry:element name="ROW">
						<qry:attribute value="$r/@oi_departamento" name="id"/>
						<qry:attribute value="$r/@oi_departamento" name="value"/>
						<qry:attribute value="$r/@c_departamento" name="code"/>
						<qry:attribute value="$r/@d_departamento" name="text"/>
						<qry:insert-select doc-path="." name="SECURITY"/>
					</qry:element>
				</qry:out>
			</qry:select>
			<qry:select doc="PARAM" name="SECURITY">
				<qry:xquery>
					for $r in sql('
				SELECT NMD_SECURITY.policy 
				FROM NMD_SECURITY 
				WHERE NMD_SECURITY.class=\'NucleusRH.Base.Organizacion.Departamentos.DEPARTAMENTO\' 
				AND NMD_SECURITY.id={#PARAM:@id}
			')/ROWS/ROW
				</qry:xquery>
				<qry:out>
					<qry:attribute value="$r/@policy" name="policy"/>
				</qry:out>
			</qry:select>
		</qry:define>
	</flow:declare>
	<flow:form form-class="NucleusRH.Base.Organizacion.Departamentos.DEPARTAMENTO.EMPRESA.guia.form" name="NucleusRH.Base.Organizacion.Departamentos.DEPARTAMENTO.EMPRESA.guia.form:SHOW" mode="SHOW" doc="SOURCE" extends="Nomad.simple.guia.form:SHOW"/>
</flow:flow>
