<flow:flow xmlns:flow="nomad_engine.flow" xmlns:doc="nomad_engine.doc" default_action="initialize" extends="Nomad.Base.flow" name="Nomad.Base.Liquidacion.Liquidacion">
	<flow:info label="Flow para Nomad.Base.Liquidacion.Liquidacion">
		Flow para Nomad.Base.Liquidacion.Liquidacion
	</flow:info>
	<flow:declare>
		<doc:define name="FILTERDATA">
			<DATA>
				<LIQS/>
			</DATA>
		</doc:define>
	</flow:declare>
	<flow:main doc="SOURCE">
		<flow:action name="initialize">
			<flow:load-user-data name="Afjp-Interface" doc="FILTERDATA"/>
			<flow:open-form form-class="NucleusRH.Base.Liquidacion.Interface.Afjp.form" doc-path="#FILTERDATA:" mode="SHOW"/>
		</flow:action>
	</flow:main>
	<flow:form form-class="NucleusRH.Base.Liquidacion.Interface.Afjp.form" name="NucleusRH.Base.Liquidacion.Interface.Afjp.form:EDIT" mode="SHOW" doc="SOURCE">
		<flow:action name="EJECUTAR_CLICK">
			<flow:save-user-data name="Afjp-Interface" doc-path="#FILTERDATA:"/>
			<flow:exec-method method="InterfaceSalida" class="NucleusRH.Base.Liquidacion.Liquidacion.LIQUIDACION" out-attr-path="#BATCHDOC:@batch-id" out-type="String" priority="5">
				<flow:param value="AFJP" mode="in" name="interfaceTIPO" type="Nomad.NSystem.String"/>
				<flow:param attr-path="#SOURCE:@interface" mode="in" type="Nomad.NSystem.String" name="interdaceID"/>
				<flow:param doc-path="#FILTERDATA:" type="Nomad.NSystem.Object" mode="in" name="parametros"/>
			</flow:exec-method>
			<flow:open-form form-class="Nomad.Base.Batch.Download.form" mode="BATCH" doc-path="#BATCHDOC:"/>
		</flow:action>
		<flow:action name="VOLVER_CLICK">
			<flow:close-form/>
		</flow:action>
	</flow:form>
</flow:flow>
