<flow:flow xmlns:doc="nomad_engine.form" xmlns:qry="nomad_engine.form" xmlns:flow="nomad_engine.form" name="Nomad.Base.Liquidacion.Liquidacion">
	<flow:info label="Flow para Nomad.Base.Liquidacion.Liquidacion">
	Flow para Nomad.Base.Liquidacion.Liquidacion</flow:info>
<flow:declare/>

<flow:main doc="SOURCE">
	<flow:action name="initialize">
		<flow:open-form doc-path="#SOURCE:" mode="EDIT" form-class="NucleusRH.Base.Liquidacion.Interface.ImprimirRecibo.1.form"/>
	</flow:action>
</flow:main>

<flow:comment> 1 </flow:comment>		
		<flow:form doc="SOURCE" mode="EDIT" form-class="NucleusRH.Base.Liquidacion.Interface.ImprimirRecibo.1.form">
		
				<flow:action name="ACEPTAR_CLICK">  
						<flow:close-form/>
				</flow:action>
				
				<flow:action name="CANCELAR_CLICK">
						<flow:close-form/>
				</flow:action>
		</flow:form>
																
</flow:flow>