<flow:flow xmlns:flow="nomad_engine.flow" xmlns:qry="nomad_engine.qry" name="NucleusRH.Base.Gestion_de_Postulantes.Reclutados.RECLUTADO.guia" extends="Nomad.parent.guia.flow">
	<flow:info label="Flow guia para NucleusRH.Base.Gestion_de_Postulantes.Reclutados.RECLUTADO"/>
	<flow:main doc="SOURCE"/>
	<flow:declare>
		<qry:define name="X2C">
			<qry:main doc="SOURCE">
				<qry:element name="ROW">
					<qry:insert-select name="RS0" doc-path="#SOURCE:"/>
					<qry:insert-select name="RS1" doc-path="#SOURCE:"/>
				</qry:element>
			</qry:main>
			<qry:select name="RS0" doc="SOURCE">
				<qry:xquery>
					for $r in table('SELECT oi_reclutado ID, c_reclutado CODE,  d_ape_y_nom TEXT
, oi_referencia PID 
FROM SEL13_RECLUTADOS, per02_personal_emp, per01_personal 
WHERE 
SEL13_RECLUTADOS.oi_personal_emp is not null and 
SEL13_RECLUTADOS.oi_personal_emp = per02_personal_emp.oi_personal_emp				
and per02_personal_emp.oi_personal = per01_personal.oi_personal
and				
oi_reclutado={#SOURCE:helper-mess/@ID}')/ROWS/ROW
				</qry:xquery>
				<qry:out>
					<qry:attribute name="id" value="$r/@ID" type="Nomad.NSystem.Int"/>
					<qry:attribute name="value" value="$r/@ID" type="Nomad.NSystem.Int"/>
					<qry:attribute name="code" value="$r/@CODE" type="Nomad.NSystem.String"/>
					<qry:attribute name="text" value="$r/@TEXT" type="Nomad.NSystem.String"/>
				</qry:out>
			</qry:select>
			<qry:select name="RS1" doc="SOURCE">
				<qry:xquery>
					for $r in table('SELECT oi_reclutado ID, c_reclutado CODE, d_postulante TEXT
, oi_referencia PID FROM SEL13_RECLUTADOS, sel01_postulante
WHERE 
SEL13_RECLUTADOS.oi_postulante is not null and 
SEL13_RECLUTADOS.oi_postulante = sel01_postulante.oi_postulante
and 
				oi_reclutado={#SOURCE:helper-mess/@ID}')/ROWS/ROW
				</qry:xquery>
				<qry:out>
					<qry:attribute name="id" value="$r/@ID" type="Nomad.NSystem.Int"/>
					<qry:attribute name="value" value="$r/@ID" type="Nomad.NSystem.Int"/>
					<qry:attribute name="code" value="$r/@CODE" type="Nomad.NSystem.String"/>
					<qry:attribute name="text" value="$r/@TEXT" type="Nomad.NSystem.String"/>
				</qry:out>
			</qry:select>
		</qry:define>
	</flow:declare>
</flow:flow>
