<flow:flow xmlns:flow="nomad_engine.flow" xmlns:qry="nomad_engine.qry" extends="Nomad.parent.guia.flow" name="NucleusRH.Base.Gestion_de_Postulantes.Reclutados.RECLUTADO.guia">
	<flow:info label="Flow guia para NucleusRH.Base.Gestion_de_Postulantes.Reclutados.RECLUTADO"/>
	<flow:main doc="SOURCE">
		<flow:action name="OPEN-GUIA">
			<flow:open-form parent-doc-path="#SOURCE:" doc-path="#RS:" mode="SHOW" form-class="NucleusRH.Base.Gestion_de_Postulantes.Reclutados.RECLUTADO.guia.form"/>
		</flow:action>
	</flow:main>
	<flow:declare>
		<qry:define declare="&lt;helper-mess id=&quot;1&quot;/&gt;" name="X2C">
			<qry:main doc="SOURCE">
				<qry:element name="ROW">
					<qry:insert-select doc-path="#SOURCE:" name="RS1"/>
				</qry:element>
			</qry:main>
			<qry:select doc="SOURCE" name="RS1">
				<qry:xquery>
					for $r in sql('SELECT 
				t.oi_reclutado as ID, 
				t.c_reclutado as CODE, 
				t.oi_reclutado as TEXT, 
				t.oi_personal_emp, 				
				t.oi_postulante,
				t.oi_referencia as PID, SEC.policy  
				FROM SEL13_RECLUTADOS as t, 
				NMD_SECURITY(class=\'NucleusRH.Base.Gestion_de_Postulantes.Reclutados.RECLUTADO\') as SEC JOIN t.oi_reclutado LEFT OUTER SEC.id  WHERE t.oi_reclutado={#SOURCE:helper-mess/@ID} ORDER BY CODE asc')/ROWS/ROW
				</qry:xquery>
				<qry:out>
					<qry:attribute value="$r/@ID" name="id"/>
					<qry:attribute value="$r/@ID" name="value"/>
					<qry:attribute value="$r/@CODE" name="code"/>
					<qry:attribute value="$r/@TEXT" name="text"/>
					<qry:attribute value="$r/@oi_personal_emp" name="oi_personal_emp"/>
					<qry:attribute value="$r/@oi_postulante" name="oi_postulante"/>
					<qry:insert-select doc-path=".[$r/@oi_personal_emp!='']" name="PERSONAL"/>
					<qry:insert-select doc-path=".[$r/@oi_personal_emp='']" name="POSTULANTE"/>
					<qry:attribute type="Nomad.NSystem.Int" value="$r/@PID" name="PID"/>
					<qry:insert-select doc-path="." name="RS2"/>
				</qry:out>
			</qry:select>
			<qry:select doc="SOURCE" name="POSTULANTE">
				<qry:xquery>
					for $r in sql('SELECT 
				p1.d_postulante as TEXT
				FROM    
				sel01_postulante as p1				
				where 
				p1.oi_postulante = {%= #SOURCE:@oi_postulante%}
				')/ROWS/ROW
				</qry:xquery>
				<qry:out>
					<qry:attribute value="$r/@TEXT" name="text"/>
				</qry:out>
			</qry:select>
			<qry:select doc="SOURCE" name="PERSONAL">
				<qry:xquery>
					for $r in sql('SELECT 
				p1.d_ape_y_nom as TEXT
				FROM    
				PER01_PERSONAL as p1, PER02_PERSONAL_EMP as p2
				JOIN
				p1.oi_personal INNER p2.oi_personal
				where 
				p2.oi_personal_emp = {%= #SOURCE:@oi_personal_emp%}
				')/ROWS/ROW
				</qry:xquery>
				<qry:out>
					<qry:attribute value="$r/@TEXT" name="text"/>
				</qry:out>
			</qry:select>
			<qry:select doc="SOURCE" name="RS2">
				<qry:xquery>
					for $r in sql('SELECT t.oi_referencia as ID, t.c_referencia as CODE, t.d_referencia as TEXT, t.oi_req as PID FROM SEL02_REFERENCIAS as t WHERE t.oi_referencia={#SOURCE:@PID} ORDER BY CODE asc')/ROWS/ROW
				</qry:xquery>
				<qry:out>
					<qry:attribute value="$r/@CODE+'-'+#SOURCE:@CODE" name="code"/>
					<qry:attribute value="$r/@TEXT+'-'+#SOURCE:@TEXT" name="text"/>
					<qry:attribute type="Nomad.NSystem.Int" value="$r/@PID" name="PID"/>
					<qry:insert-select doc-path="." name="RS3"/>
				</qry:out>
			</qry:select>
			<qry:select doc="SOURCE" name="RS3">
				<qry:xquery>
					for $r in sql('SELECT t.oi_req as ID, t.c_req as CODE, t.d_req as TEXT, t.oi_empresa as PID, SEC.policy  FROM SEL02_REQ as t, NMD_SECURITY(class=\'NucleusRH.Base.Gestion_de_Postulantes.Requerimientos.REQ\') as SEC JOIN t.oi_req LEFT OUTER SEC.id  WHERE t.oi_req={#SOURCE:@PID} ORDER BY CODE asc')/ROWS/ROW
				</qry:xquery>
				<qry:out>
					<qry:attribute value="$r/@CODE+'-'+#SOURCE:@CODE" name="code"/>
					<qry:attribute value="$r/@TEXT+'-'+#SOURCE:@TEXT" name="text"/>
					<qry:attribute type="Nomad.NSystem.Int" value="$r/@PID" name="PID"/>
					<qry:insert-select doc-path="." name="RS4"/>
				</qry:out>
			</qry:select>
			<qry:select doc="SOURCE" name="RS4">
				<qry:xquery>
					for $r in sql('SELECT t.oi_empresa as ID, t.c_empresa as CODE, t.d_empresa as TEXT, SEC.policy  FROM ORG03_EMPRESAS as t, NMD_SECURITY(class=\'NucleusRH.Base.Organizacion.Empresas.EMPRESA\') as SEC JOIN t.oi_empresa LEFT OUTER SEC.id  WHERE t.oi_empresa={#SOURCE:@PID} ORDER BY CODE asc')/ROWS/ROW
				</qry:xquery>
				<qry:out>
					<qry:attribute value="$r/@CODE+'-'+#SOURCE:@CODE" name="code"/>
					<qry:attribute value="$r/@TEXT+'-'+#SOURCE:@TEXT" name="text"/>
				</qry:out>
			</qry:select>
		</qry:define>
		<qry:define declare="&lt;helper-mess CODE=&quot;000124-222-1234-72572990&quot;/&gt;" name="C2X">
			<qry:main doc="SOURCE">
				<qry:append-doc doc-path="#SOURCE:helper-mess" name="INDOC"/>
				<qry:element name="ROW">
					<qry:insert-select doc-path="#SOURCE:" name="RS1"/>
				</qry:element>
			</qry:main>
			<qry:select doc="SOURCE" name="RS1">
				<qry:xquery>
					for $r in sql('SELECT t.oi_empresa as ID, t.c_empresa as CODE, t.d_empresa as TEXT, SEC.policy  FROM ORG03_EMPRESAS as t, NMD_SECURITY(class=\'NucleusRH.Base.Organizacion.Empresas.EMPRESA\') as SEC JOIN t.oi_empresa LEFT OUTER SEC.id  WHERE t.c_empresa={substring_before(#INDOC:@CODE,\'-\')} ORDER BY CODE asc')/ROWS/ROW
				</qry:xquery>
				<qry:out>
					<qry:attribute value="$r/@policy" name="policy"/>
					<qry:attribute value="substring_after(#INDOC:@CODE,'-')" name="SUB_SEARCH"/>
					<qry:attribute value="$r/@ID" name="PARENTID"/>
					<qry:attribute value="$r/@CODE" name="code"/>
					<qry:attribute value="$r/@TEXT" name="text"/>
					<qry:insert-select doc-path="." name="RS2"/>
				</qry:out>
			</qry:select>
			<qry:select doc="SOURCE" name="RS2">
				<qry:xquery>
					for $r in sql('SELECT t.oi_req as ID, t.c_req as CODE, t.d_req as TEXT, t.oi_empresa as PID, SEC.policy  FROM SEL02_REQ as t, NMD_SECURITY(class=\'NucleusRH.Base.Gestion_de_Postulantes.Requerimientos.REQ\') as SEC JOIN t.oi_req LEFT OUTER SEC.id  WHERE t.c_req={substring_before(#SOURCE:@SUB_SEARCH,\'-\')} AND t.oi_empresa={#SOURCE:@PARENTID} ORDER BY CODE asc')/ROWS/ROW
				</qry:xquery>
				<qry:out>
					<qry:attribute value="$r/@policy" name="policy"/>
					<qry:attribute value="substring_after(#SOURCE:@SUB_SEARCH,'-')" name="SUB_SEARCH"/>
					<qry:attribute value="$r/@ID" name="PARENTID"/>
					<qry:attribute value="#SOURCE:@CODE+'-'+$r/@CODE" name="code"/>
					<qry:attribute value="#SOURCE:@TEXT+'-'+$r/@TEXT" name="text"/>
					<qry:insert-select doc-path="." name="RS3"/>
				</qry:out>
			</qry:select>
			<qry:select doc="SOURCE" name="RS3">
				<qry:xquery>
					for $r in sql('SELECT t.oi_referencia as ID, t.c_referencia as CODE, t.d_referencia as TEXT, t.oi_req as PID FROM SEL02_REFERENCIAS as t WHERE t.c_referencia={substring_before(#SOURCE:@SUB_SEARCH,\'-\')} AND t.oi_req={#SOURCE:@PARENTID} ORDER BY CODE asc')/ROWS/ROW
				</qry:xquery>
				<qry:out>
					<qry:attribute value="$r/@policy" name="policy"/>
					<qry:attribute value="substring_after(#SOURCE:@SUB_SEARCH,'-')" name="SUB_SEARCH"/>
					<qry:attribute value="$r/@ID" name="PARENTID"/>
					<qry:attribute value="#SOURCE:@CODE+'-'+$r/@CODE" name="code"/>
					<qry:attribute value="#SOURCE:@TEXT+'-'+$r/@TEXT" name="text"/>
					<qry:insert-select doc-path="." name="RS4"/>
				</qry:out>
			</qry:select>
			<qry:select doc="SOURCE" name="RS4">
				<qry:xquery>
					for $r in sql('SELECT t.oi_reclutado as ID, 
				t.c_reclutado as CODE, 
				t.oi_reclutado as TEXT, 
				t.oi_personal_emp, t.oi_postulante,
				t.oi_referencia as PID, 
				SEC.policy  
				FROM SEL13_RECLUTADOS as t, NMD_SECURITY(class=\'NucleusRH.Base.Gestion_de_Postulantes.Reclutados.RECLUTADO\') as SEC JOIN t.oi_reclutado LEFT OUTER SEC.id  WHERE t.c_reclutado={substring_before(#SOURCE:@SUB_SEARCH,\'-\')} AND t.oi_referencia={#SOURCE:@PARENTID} ORDER BY CODE asc')/ROWS/ROW
				</qry:xquery>
				<qry:out>
					<qry:attribute value="$r/@policy" name="policy"/>
					<qry:attribute value="''" name="SUB_SEARCH"/>
					<qry:attribute value="''" name="PARENTID"/>
					<qry:attribute value="$r/@ID" name="id"/>
					<qry:attribute value="$r/@ID" name="value"/>
					<qry:attribute value="$r/@oi_postulante" name="oi_postulante"/>
					<qry:attribute value="$r/@oi_personal_emp" name="oi_personal_emp"/>
					<qry:insert-select doc-path=".[$r/@oi_personal_emp!='']" name="PERSONAL"/>
					<qry:insert-select doc-path=".[$r/@oi_personal_emp='']" name="POSTULANTE"/>
					<qry:attribute value="#SOURCE:@CODE+'-'+ @CODE1" name="code"/>
					<qry:attribute value="#SOURCE:@TEXT+'-'+ @TEXT1" name="text"/>
				</qry:out>
			</qry:select>
			<qry:select doc="SOURCE" name="POSTULANTE">
				<qry:xquery>
					for $r in sql('SELECT 
				p1.d_postulante as TEXT
				FROM    
				sel01_postulante as p1				
				where 
				p1.oi_postulante = {%= #SOURCE:@oi_postulante%}
				')/ROWS/ROW
				</qry:xquery>
				<qry:out>
					<qry:attribute value="$r/@TEXT" name="text1"/>
				</qry:out>
			</qry:select>
			<qry:select doc="SOURCE" name="PERSONAL">
				<qry:xquery>
					for $r in sql('SELECT 
				p1.d_ape_y_nom as TEXT
				FROM    
				PER01_PERSONAL as p1, PER02_PERSONAL_EMP as p2
				JOIN
				p1.oi_personal INNER p2.oi_personal
				where 
				p2.oi_personal_emp = {%= #SOURCE:@oi_personal_emp%}
				')/ROWS/ROW
				</qry:xquery>
				<qry:out>
					<qry:attribute value="$r/@TEXT" name="text1"/>
				</qry:out>
			</qry:select>
		</qry:define>
		<qry:define declare="&lt;ROW PARENTID=&quot;1&quot;/&gt;" name="HELP">
			<qry:main doc="SOURCE">
				<qry:element name="ROW">
					<qry:attribute value="#SOURCE:ROW/@PARENTID" name="PARENTID"/>
					<qry:attribute value="#SOURCE:ROW/@CODE" name="CODE"/>
					<qry:attribute value="#SOURCE:ROW/@TEXT" name="TEXT"/>
					<qry:attribute value="#SOURCE:ROW/@FILTER" name="FILTER"/>
					<qry:insert-select doc-path="." name="RS2"/>
					<qry:element name="ROWS">
						<qry:insert-select doc-path=".." name="RS1"/>
					</qry:element>
				</qry:element>
			</qry:main>
			<qry:select doc="SOURCE" name="RS2">
				<qry:xquery>
					for $r in sql('SELECT t.oi_referencia as ID, 
			t.c_referencia as CODE, t.d_referencia as TEXT, 
			t.oi_req as PID 
			FROM SEL02_REFERENCIAS as t 
			WHERE t.oi_referencia={#SOURCE:@PARENTID} ORDER BY CODE asc')/ROWS/ROW
				</qry:xquery>
				<qry:out>
					<qry:attribute value="$r/@CODE" name="code"/>
					<qry:attribute value="$r/@TEXT" name="text"/>
					<qry:attribute type="Nomad.NSystem.Int" value="$r/@PID" name="PID"/>
					<qry:insert-select doc-path="." name="RS3"/>
				</qry:out>
			</qry:select>
			<qry:select doc="SOURCE" name="RS3">
				<qry:xquery>
					for $r in sql('SELECT t.oi_req as ID, t.c_req as CODE, t.d_req as TEXT, t.oi_empresa as PID, SEC.policy  FROM SEL02_REQ as t, NMD_SECURITY(class=\'NucleusRH.Base.Gestion_de_Postulantes.Requerimientos.REQ\') as SEC JOIN t.oi_req LEFT OUTER SEC.id  WHERE t.oi_req={#SOURCE:@PID} ORDER BY CODE asc')/ROWS/ROW
				</qry:xquery>
				<qry:out>
					<qry:attribute value="$r/@CODE+'-'+#SOURCE:@CODE" name="code"/>
					<qry:attribute value="$r/@TEXT+'-'+#SOURCE:@TEXT" name="text"/>
					<qry:attribute type="Nomad.NSystem.Int" value="$r/@PID" name="PID"/>
					<qry:insert-select doc-path="." name="RS4"/>
				</qry:out>
			</qry:select>
			<qry:select doc="SOURCE" name="RS4">
				<qry:xquery>
					for $r in sql('SELECT t.oi_empresa as ID, t.c_empresa as CODE, t.d_empresa as TEXT, SEC.policy  FROM ORG03_EMPRESAS as t, NMD_SECURITY(class=\'NucleusRH.Base.Organizacion.Empresas.EMPRESA\') as SEC JOIN t.oi_empresa LEFT OUTER SEC.id  WHERE t.oi_empresa={#SOURCE:@PID} ORDER BY CODE asc')/ROWS/ROW
				</qry:xquery>
				<qry:out>
					<qry:attribute value="$r/@CODE+'-'+#SOURCE:@CODE" name="code"/>
					<qry:attribute value="$r/@TEXT+'-'+#SOURCE:@TEXT" name="text"/>
				</qry:out>
			</qry:select>
			<qry:select doc="SOURCE" name="RS1">
				<qry:xquery>
					for $r in sql('SELECT t.oi_reclutado as ID, 
				t.c_reclutado as CODE, 
				t.oi_reclutado as TEXT, 
				t.oi_referencia as PID, 
				t.oi_personal_emp, t.oi_postulante, 
				SEC.policy  
				
				FROM SEL13_RECLUTADOS as t, 
				NMD_SECURITY(class=\'NucleusRH.Base.Gestion_de_Postulantes.Reclutados.RECLUTADO\') as SEC JOIN t.oi_reclutado LEFT OUTER SEC.id  
				WHERE  t.oi_referencia={#SOURCE:@PARENTID} 
				ORDER BY CODE asc')/ROWS/ROW
				</qry:xquery>
				<qry:out>
					<qry:element name="ROW">
						<qry:attribute value="$r/@ID" name="id"/>
						<qry:attribute value="$r/@ID" name="value"/>
						<qry:attribute value="$r/@CODE" name="code1"/>
						<qry:attribute value="$r/@TEXT" name="text1"/>
						<qry:attribute value="$r/@oi_postulante" name="oi_postulante"/>
						<qry:attribute value="$r/@oi_personal_emp" name="oi_personal_emp"/>
						<qry:insert-select doc-path=".[$r/@oi_personal_emp!='']" name="PERSONAL"/>
						<qry:insert-select doc-path=".[$r/@oi_personal_emp='']" name="POSTULANTE"/>
						<qry:attribute value="#SOURCE:@CODE+'-'+ @CODE1" name="code"/>
						<qry:attribute value="#SOURCE:@TEXT+'-'+ @TEXT1" name="text"/>
					</qry:element>
				</qry:out>
			</qry:select>
			<qry:select doc="SOURCE" name="POSTULANTE">
				<qry:xquery>
					for $r in sql('SELECT 
				p1.d_postulante as TEXT
				FROM    
				sel01_postulante as p1				
				where 
				p1.oi_postulante = {%= #SOURCE:@oi_postulante%}
				')/ROWS/ROW
				</qry:xquery>
				<qry:out>
					<qry:attribute value="$r/@TEXT" name="text1"/>
				</qry:out>
			</qry:select>
			<qry:select doc="SOURCE" name="PERSONAL">
				<qry:xquery>
					for $r in sql('SELECT 
				p1.d_ape_y_nom as TEXT
				FROM    
				PER01_PERSONAL as p1, PER02_PERSONAL_EMP as p2
				JOIN
				p1.oi_personal INNER p2.oi_personal
				where 
				p2.oi_personal_emp = {%= #SOURCE:@oi_personal_emp%}
				')/ROWS/ROW
				</qry:xquery>
				<qry:out>
					<qry:attribute value="$r/@TEXT" name="text1"/>
				</qry:out>
			</qry:select>
		</qry:define>
		<qry:define name="PRELOAD">
			<qry:main doc="SOURCE">
				<qry:append-doc doc-path="#SOURCE:helper-mess" name="HM"/>
				<qry:element name="ROW">
					<qry:insert-select doc-path="#SOURCE:helper-mess" name="RS2"/>
					<qry:insert-select doc-path="." name="RS3"/>
					<qry:element name="ROWS">
						<qry:insert-select doc-path=".." name="RS1"/>
					</qry:element>
					<qry:attribute value="substring(#HM:@TEXT,1+string_length(./@TEXT))" name="FILTER"/>
				</qry:element>
			</qry:main>
			<qry:select doc="SOURCE" name="RS3">
				<qry:xquery>
					for $r in sql('SELECT t.oi_referencia as ID, t.c_referencia as CODE, t.d_referencia as TEXT, t.oi_req as PID FROM SEL02_REFERENCIAS as t WHERE t.oi_referencia={#SOURCE:@PARENTID} ORDER BY CODE asc')/ROWS/ROW
				</qry:xquery>
				<qry:out>
					<qry:attribute value="$r/@CODE" name="code"/>
					<qry:attribute value="$r/@TEXT" name="text"/>
					<qry:attribute type="Nomad.NSystem.Int" value="$r/@PID" name="PID"/>
					<qry:insert-select doc-path="." name="RS4"/>
				</qry:out>
			</qry:select>
			<qry:select doc="SOURCE" name="RS4">
				<qry:xquery>
					for $r in sql('SELECT t.oi_req as ID, t.c_req as CODE, t.d_req as TEXT, t.oi_empresa as PID, SEC.policy  FROM SEL02_REQ as t, NMD_SECURITY(class=\'NucleusRH.Base.Gestion_de_Postulantes.Requerimientos.REQ\') as SEC JOIN t.oi_req LEFT OUTER SEC.id  WHERE t.oi_req={#SOURCE:@PID} ORDER BY CODE asc')/ROWS/ROW
				</qry:xquery>
				<qry:out>
					<qry:attribute value="$r/@CODE+'-'+#SOURCE:@CODE" name="code"/>
					<qry:attribute value="$r/@TEXT+'-'+#SOURCE:@TEXT" name="text"/>
					<qry:attribute type="Nomad.NSystem.Int" value="$r/@PID" name="PID"/>
					<qry:insert-select doc-path="." name="RS5"/>
				</qry:out>
			</qry:select>
			<qry:select doc="SOURCE" name="RS5">
				<qry:xquery>
					for $r in sql('SELECT t.oi_empresa as ID, t.c_empresa as CODE, t.d_empresa as TEXT, SEC.policy  FROM ORG03_EMPRESAS as t, NMD_SECURITY(class=\'NucleusRH.Base.Organizacion.Empresas.EMPRESA\') as SEC JOIN t.oi_empresa LEFT OUTER SEC.id  WHERE t.oi_empresa={#SOURCE:@PID} ORDER BY CODE asc')/ROWS/ROW
				</qry:xquery>
				<qry:out>
					<qry:attribute value="$r/@CODE+'-'+#SOURCE:@CODE" name="code"/>
					<qry:attribute value="$r/@TEXT+'-'+#SOURCE:@TEXT" name="text"/>
				</qry:out>
			</qry:select>
			<qry:select doc="SOURCE" name="RS2">
				<qry:xquery>
					for $r in sql('select t.oi_referencia from SEL13_RECLUTADOS as t where t.oi_reclutado={#SOURCE:@ID}')/ROWS/ROW
				</qry:xquery>
				<qry:out>
					<qry:attribute value="$r/@oi_referencia" name="PARENTID"/>
				</qry:out>
			</qry:select>
			<qry:select doc="SOURCE" name="RS1">
				<qry:xquery>
					for $r in sql('SELECT t.oi_reclutado as ID, 
				t.c_reclutado as CODE, 
				t.oi_reclutado as TEXT, 
				t.oi_referencia as PID, 
				t.oi_personal_emp, t.oi_postulante, 
				SEC.policy  FROM SEL13_RECLUTADOS as t, NMD_SECURITY(class=\'NucleusRH.Base.Gestion_de_Postulantes.Reclutados.RECLUTADO\') as SEC JOIN t.oi_reclutado LEFT OUTER SEC.id  WHERE  t.oi_referencia={#SOURCE:@PARENTID} ORDER BY CODE asc')/ROWS/ROW
				</qry:xquery>
				<qry:out>
					<qry:element name="ROW">
						<qry:attribute value="$r/@ID" name="id"/>
						<qry:attribute value="$r/@ID" name="value"/>
						<qry:attribute value="$r/@CODE" name="code1"/>
						<qry:attribute value="$r/@TEXT" name="text1"/>
						<qry:attribute value="$r/@oi_postulante" name="oi_postulante"/>
						<qry:attribute value="$r/@oi_personal_emp" name="oi_personal_emp"/>
						<qry:insert-select doc-path=".[$r/@oi_personal_emp!='']" name="PERSONAL"/>
						<qry:insert-select doc-path=".[$r/@oi_personal_emp='']" name="POSTULANTE"/>
						<qry:attribute value="#SOURCE:@CODE+'-'+@CODE1" name="code"/>
						<qry:attribute value="#SOURCE:@TEXT+'-'+@TEXT1" name="text"/>
					</qry:element>
				</qry:out>
			</qry:select>
			<qry:select doc="SOURCE" name="POSTULANTE">
				<qry:xquery>
					for $r in sql('SELECT 
				p1.d_postulante as TEXT
				FROM    
				sel01_postulante as p1				
				where 
				p1.oi_postulante = {%= #SOURCE:@oi_postulante%}
				')/ROWS/ROW
				</qry:xquery>
				<qry:out>
					<qry:attribute value="$r/@TEXT" name="text1"/>
				</qry:out>
			</qry:select>
			<qry:select doc="SOURCE" name="PERSONAL">
				<qry:xquery>
					for $r in sql('SELECT 
				p1.d_ape_y_nom as TEXT
				FROM    
				PER01_PERSONAL as p1, PER02_PERSONAL_EMP as p2
				JOIN
				p1.oi_personal INNER p2.oi_personal
				where 
				p2.oi_personal_emp = {%= #SOURCE:@oi_personal_emp%}
				')/ROWS/ROW
				</qry:xquery>
				<qry:out>
					<qry:attribute value="$r/@TEXT" name="text1"/>
				</qry:out>
			</qry:select>
		</qry:define>
	</flow:declare>
	<flow:form extends="nomad.parent.guia.form:SHOW" parent-doc="INVAL" doc="SOURCE" mode="SHOW" name="NucleusRH.Base.Gestion_de_Postulantes.Reclutados.RECLUTADO.guia.form:SHOW" form-class="NucleusRH.Base.Gestion_de_Postulantes.Reclutados.RECLUTADO.guia.form"/>
</flow:flow>
