<flow:flow xmlns:flow="nomad_engine.flow">
	<flow:info/>
	<flow:declare/>
	<flow:main doc="SOURCE">
		<flow:action name="initializeExamenReclutado"/>
	</flow:main>
</flow:flow>
