<flow:flow xmlns:flow="nomad_engine.flow" description="Flow para responder las acciones sobre las tareas." default_action="LIST" name="NucleusRH.Base.Configuracion.Tareas.TAREA.flow">
	<flow:info label="Flow para responder las acciones sobre las tareas."/>
	<flow:declare/>
	<flow:main doc="SOURCE">
		<flow:action name="ACTIVAR">
			<flow:exec-method class="NucleusRH.Base.Configuracion.Tareas.TAREA" method="Activate">
				<flow:param attr-path="#SOURCE:@PARENT" type="Nomad.NSystem.String" mode="in" name="pOI_tarea"/>
			</flow:exec-method>
			<flow:exit-flow return-path="#SOURCE:"/>
		</flow:action>
		<flow:action name="DETENER">
			<flow:exec-method class="NucleusRH.Base.Configuracion.Tareas.TAREA" method="Inactivate">
				<flow:param attr-path="#SOURCE:@PARENT" type="Nomad.NSystem.String" mode="in" name="pOI_tarea"/>
			</flow:exec-method>
			<flow:exit-flow return-path="#SOURCE:"/>
		</flow:action>
		<flow:action name="TEST">
			<flow:exec-method class="NucleusRH.Base.Configuracion.Tareas.TAREA" method="Test">
				<flow:param attr-path="#SOURCE:@PARENT" type="Nomad.NSystem.String" mode="in" name="pOI_tarea"/>
			</flow:exec-method>
			<flow:exit-flow return-path="#SOURCE:"/>
		</flow:action>
	</flow:main>
</flow:flow>
