<flow:flow name="NucleusRH.Base.Personal.Reportes.Pivot.flow" xmlns:doc="nomad_engine.doc" xmlns:qry="nomad_engine.qry" xmlns:flow="nomad_engine.flow">
	<flow:info label="Flow para NucleusRH.Base.Personal.Reportes.Legajo"/>
	<flow:declare>
		<doc:define name="DDO"/>
		<doc:define name="NEWDDO"/>
		<doc:define name="QRY"/>
		<doc:define name="FILTERDATA">
			<ID oi_personal_emp="" chkDatosPersonales="1" chkDatosPrincipales="1" report=""/>
		</doc:define>
		<doc:define name="IMG">
			<ROWS>
				<ROW/>
			</ROWS>
		</doc:define>
		<qry:define xmlns:qry="nomad.xquery" declare="&lt;PARAMETERS oi_personal_emp=&quot;1&quot; chkDatosPersonales=&quot;1&quot; chkDatosPrincipales=&quot;1&quot; report=&quot;htmlgen_flow_49682008052117000732.html&quot; chkDatosReferenciales=&quot;1&quot; chkDatosContrato=&quot;1&quot; chkDocumentos=&quot;1&quot; chkRelLaboral=&quot;1&quot; chkDomicilios=&quot;1&quot; chkAfiliacion=&quot;1&quot; chkEstudios=&quot;1&quot; chkPosicion=&quot;1&quot; chkIdiomas=&quot;1&quot; chkUniOrg=&quot;1&quot; chkCursos=&quot;1&quot; chkBsCargo=&quot;1&quot; chkCompetencias=&quot;1&quot; chkEPP=&quot;1&quot; chkAntecedentesLab=&quot;1&quot; chkUniformes=&quot;1&quot; chkDatosFam=&quot;1&quot; chkBeneficios=&quot;1&quot; chkIngresos=&quot;1&quot; /&gt;" name="QRY_IMAGEN">
			<qry:main doc="SOURCE">
				<qry:element name="ROWS">
					<qry:insert-select name="RS1" doc-path="#SOURCE:PARAMETERS"/>
					<qry:insert-select name="RS2" doc-path="#SOURCE:PARAMETERS"/>
				</qry:element>
			</qry:main>
			<qry:select name="RS1" doc="SOURCE">
				<qry:xquery>
					for $r in sql('
				SELECT PER01_PERSONAL.oi_foto
				FROM PER01_PERSONAL, PER02_PERSONAL_EMP
				JOIN  PER01_PERSONAL.oi_personal INNER PER02_PERSONAL_EMP.oi_personal				
				WHERE PER02_PERSONAL_EMP.oi_personal_emp = {#SOURCE:@oi_personal_emp}
			')/ROWS/ROW
				</qry:xquery>
				<qry:out>
					<qry:element name="ROW">
						<qry:attribute name="oi_imagen" value="$r/@oi_foto"/>
					</qry:element>
				</qry:out>
			</qry:select>
			<qry:select name="RS2" doc="SOURCE">
				<qry:xquery>
					for $r in sql('
				SELECT ORG03_EMPRESAS.oi_logotipo				
				FROM ORG03_EMPRESAS, PER02_PERSONAL_EMP
				JOIN  ORG03_EMPRESAS.oi_empresa INNER PER02_PERSONAL_EMP.oi_empresa				
				WHERE PER02_PERSONAL_EMP.oi_personal_emp = {#SOURCE:@oi_personal_emp}
			')/ROWS/ROW
				</qry:xquery>
				<qry:out>
					<qry:element name="ROW">
						<qry:attribute name="oi_imagen" value="$r/@oi_logotipo"/>
					</qry:element>
				</qry:out>
			</qry:select>
		</qry:define>
	</flow:declare>
	<flow:main doc="SOURCE">
		<flow:action name="initialize">
			<flow:log text-path="#SOURCE:" text="OOOO"/>
			<flow:open-form doc-path="#SOURCE:" mode="FILTER" form-class="NucleusRH.Base.Personal.Reportes.Pivot.form"/>
		</flow:action>
	</flow:main>
	<flow:form name="NucleusRH.Base.Personal.Reportes.Pivot.form" doc="FILTERDATA" form-class="NucleusRH.Base.Personal.Reportes.Pivot.form" mode="FILTER">
		<flow:action name="BACK">
			<flow:close-form/>
		</flow:action>
	</flow:form>
</flow:flow>
