<flow:flow xmlns:doc="nomad_engine.doc" xmlns:qry="nomad_engine.qry" xmlns:flow="nomad_engine.flow" name="NucleusRH.Base.Personal.Reportes.PlanCapacitacion">
	<flow:info label="Flow para NucleusRH.Base.Personal.Reportes.PlanCapacitacion"/>
	<flow:declare/>
	<flow:main doc="SOURCE">
		<flow:action name="initialize">
			<flow:open-form doc-path="#SOURCE:" mode="FILTER" form-class="NucleusRH.Base.Personal.Reportes.PlanCapacitacion.filter.form"/>
		</flow:action>
	</flow:main>
	<flow:form name="NucleusRH.Base.Personal.Reportes.PlanCapacitacion.filter.form:FILTER" doc="SOURCE" form-class="NucleusRH.Base.Personal.Reportes.PlanCapacitacion.filter.form" mode="FILTER">
		<flow:action name="EJECUTAR_CLICK"/>
		<flow:action name="BACK">
			<flow:close-form/>
		</flow:action>
	</flow:form>
</flow:flow>
