<flow:flow extends="NucleusRH.Base.Liquidacion.Items_Deducibles_de_Ganancias.ITEM_IG.guia.autoflow" xmlns:doc="nomad_engine.form" xmlns:qry="nomad_engine.form" xmlns:flow="nomad_engine.form" name="NucleusRH.Base.Liquidacion.Items_Deducibles_de_Ganancias.ITEM_IG.guia">
	<flow:info label="Flow guia para NucleusRH.Base.Liquidacion.Items_Deducibles_de_Ganancias.ITEM_IG"/>
	<flow:main doc="SOURCE">
		<flow:action name="OPEN-GUIA">
			<flow:open-form parent-doc-path="#SOURCE:" doc-path="#SOURCE:" mode="SHOW" form-class="NucleusRH.Base.Liquidacion.Items_Deducibles_de_Ganancias.ITEM_IG.guia.autoform"/>
		</flow:action>
	</flow:main>
	<flow:declare>
		<qry:define name="X2C">
			<qry:main doc="SOURCE">
				<qry:element name="ROW">
					<qry:insert-select doc-path="#SOURCE:" name="RS1"/>
				</qry:element>
			</qry:main>
			<qry:select doc="SOURCE" name="RS1">
				<qry:xquery>
					for $r in sql('SELECT 
				t.oi_item_ig as ID, 
				t.c_item_ig as CODE, 
				t.d_item_ig as TEXT, SEC.policy  
				FROM LIQ04_ITEMS_IG as t, NMD_SECURITY(class=\'NucleusRH.Base.Liquidacion.Items_Deducibles_de_Ganancias.ITEM_IG\') as SEC 
				JOIN t.oi_item_ig LEFT OUTER SEC.id  
				WHERE t.oi_item_ig={#SOURCE:helper-mess/@ID} 
				and t.oi_tipo_deduc in (1,3)
				ORDER BY CODE asc')/ROWS/ROW
				</qry:xquery>
				<qry:out>
					<qry:attribute value="$r/@ID" name="id"/>
					<qry:attribute value="$r/@ID" name="value"/>
					<qry:attribute value="$r/@CODE" name="code"/>
					<qry:attribute value="$r/@TEXT" name="text"/>
				</qry:out>
			</qry:select>
		</qry:define>
		<qry:define name="C2X">
			<qry:main doc="SOURCE">
				<qry:append-doc doc-path="#SOURCE:helper-mess" name="INDOC"/>
				<qry:element name="ROW">
					<qry:insert-select doc-path="#SOURCE:" name="RS1"/>
				</qry:element>
			</qry:main>
			<qry:select doc="SOURCE" name="RS1">
				<qry:xquery>
					for $r in sql('SELECT 
				t.oi_item_ig as ID, 
				t.c_item_ig as CODE, 
				t.d_item_ig as TEXT, SEC.policy  
				FROM LIQ04_ITEMS_IG as t, NMD_SECURITY(class=\'NucleusRH.Base.Liquidacion.Items_Deducibles_de_Ganancias.ITEM_IG\') as SEC 
				JOIN t.oi_item_ig LEFT OUTER SEC.id  
				WHERE t.c_item_ig={substring_before(#INDOC:@CODE,\'-\')} 
				and t.oi_tipo_deduc in (1,3)
				ORDER BY CODE asc')/ROWS/ROW
				</qry:xquery>
				<qry:out>
					<qry:attribute value="$r/@policy" name="policy"/>
					<qry:attribute value="''" name="SUB_SEARCH"/>
					<qry:attribute value="''" name="PARENTID"/>
					<qry:attribute value="$r/@ID" name="id"/>
					<qry:attribute value="$r/@ID" name="value"/>
					<qry:attribute value="$r/@CODE" name="code"/>
					<qry:attribute value="$r/@TEXT" name="text"/>
				</qry:out>
			</qry:select>
		</qry:define>
		<qry:define name="HELP">
			<qry:main doc="SOURCE">
				<qry:element name="ROWS">
					<qry:insert-select doc-path="#SOURCE:" name="RS1"/>
				</qry:element>
			</qry:main>
			<qry:select doc="SOURCE" name="RS1">
				<qry:xquery>
					for $r in sql('SELECT 
				t.oi_item_ig as ID, 
				t.c_item_ig as CODE, 
				t.d_item_ig as TEXT, 
				SEC.policy  
				FROM 
				LIQ04_ITEMS_IG as t, NMD_SECURITY(class=\'NucleusRH.Base.Liquidacion.Items_Deducibles_de_Ganancias.ITEM_IG\') as SEC JOIN t.oi_item_ig LEFT OUTER SEC.id  
				WHERE t.oi_tipo_deduc in (1,3)
				ORDER BY CODE asc')/ROWS/ROW
				</qry:xquery>
				<qry:out>
					<qry:element name="ROW">
						<qry:attribute value="$r/@ID" name="id"/>
						<qry:attribute value="$r/@ID" name="value"/>
						<qry:attribute value="$r/@CODE" name="code"/>
						<qry:attribute value="$r/@TEXT" name="text"/>
						<qry:attribute value="$r/@policy" name="policy"/>
					</qry:element>
				</qry:out>
			</qry:select>
		</qry:define>
	</flow:declare>
</flow:flow>
