<flow:flow xmlns:flow="nomad_engine.flow" xmlns:doc="nomad_engine.doc" xmlns:qry="nomad_engine.qry" extends="NucleusRH.Base.Gestion_de_Postulantes.Reclutados.RECLUTADO.guia.flow" name="NucleusRH.Base.Gestion_de_Postulantes.Reclutados.RECLUTADO.guia">
	<flow:info label="Flow guia para NucleusRH.Base.Gestion_de_Postulantes.Reclutados.RECLUTADO"/>
	<flow:main doc="SOURCE">
		<flow:action name="HELP">
			<doc:load-qry qry="PRELOAD" input-doc-path="#SOURCE:" output-doc="RS"/>
			<flow:open-form form-class="NucleusRH.Base.Gestion_de_Postulantes.Reclutados.RECLUTADO.guia.form" mode="SHOW" doc-path="#RS:" parent-doc-path="#SOURCE:"/>
		</flow:action>
	</flow:main>
	<flow:declare>
		<qry:define name="X2C">
			<qry:main doc="SOURCE">
				<qry:element name="ROW">
					<qry:insert-select name="RS0" doc-path="#SOURCE:"/>
					<qry:insert-select name="RS1" doc-path="#SOURCE:"/>
				</qry:element>
			</qry:main>
			<qry:select name="RS0" doc="SOURCE">
				<qry:xquery>
					for $r in table('SELECT oi_reclutado ID, c_reclutado CODE,  d_ape_y_nom TEXT
, oi_referencia PID 
FROM SEL13_RECLUTADOS, per02_personal_emp, per01_personal 
WHERE 
SEL13_RECLUTADOS.oi_personal_emp is not null and 
SEL13_RECLUTADOS.oi_personal_emp = per02_personal_emp.oi_personal_emp				
and per02_personal_emp.oi_personal = per01_personal.oi_personal
and				
oi_reclutado={#SOURCE:helper-mess/@ID}')/ROWS/ROW
				</qry:xquery>
				<qry:out>
					<qry:attribute name="id" value="$r/@ID" type="Nomad.NSystem.Int"/>
					<qry:attribute name="value" value="$r/@ID" type="Nomad.NSystem.Int"/>
					<qry:attribute name="code" value="$r/@CODE" type="Nomad.NSystem.String"/>
					<qry:attribute name="text" value="$r/@TEXT" type="Nomad.NSystem.String"/>
					<qry:attribute name="PID" value="$r/@PID" type="Nomad.NSystem.Int"/>
					<qry:insert-select name="RS2" doc-path="."/>
				</qry:out>
			</qry:select>
			<qry:select name="RS1" doc="SOURCE">
				<qry:xquery>
					for $r in table('SELECT oi_reclutado ID, c_reclutado CODE, d_postulante TEXT
, oi_referencia PID FROM SEL13_RECLUTADOS, sel01_postulante
WHERE 
SEL13_RECLUTADOS.oi_postulante is not null and 
SEL13_RECLUTADOS.oi_postulante = sel01_postulante.oi_postulante
and 
				oi_reclutado={#SOURCE:helper-mess/@ID}')/ROWS/ROW
				</qry:xquery>
				<qry:out>
					<qry:attribute name="id" value="$r/@ID" type="Nomad.NSystem.Int"/>
					<qry:attribute name="value" value="$r/@ID" type="Nomad.NSystem.Int"/>
					<qry:attribute name="code" value="$r/@CODE" type="Nomad.NSystem.String"/>
					<qry:attribute name="text" value="$r/@TEXT" type="Nomad.NSystem.String"/>
					<qry:attribute name="PID" value="$r/@PID" type="Nomad.NSystem.Int"/>
					<qry:insert-select name="RS2" doc-path="."/>
				</qry:out>
			</qry:select>
			<qry:select name="RS2" doc="SOURCE">
				<qry:xquery>
					for $r in table('SELECT oi_referencia ID, c_referencia CODE, d_referencia TEXT, oi_req PID FROM SEL02_REFERENCIAS WHERE oi_referencia={#SOURCE:@PID}')/ROWS/ROW
				</qry:xquery>
				<qry:out>
					<qry:attribute name="code" value="$r/@CODE+'-'+#SOURCE:@CODE" type="Nomad.NSystem.String"/>
					<qry:attribute name="text" value="$r/@TEXT+'-'+#SOURCE:@TEXT" type="Nomad.NSystem.String"/>
					<qry:attribute name="PID" value="$r/@PID" type="Nomad.NSystem.Int"/>
					<qry:insert-select name="RS3" doc-path="."/>
				</qry:out>
			</qry:select>
			<qry:select name="RS3" doc="SOURCE">
				<qry:xquery>
					for $r in table('SELECT oi_req ID, c_req CODE, d_req TEXT, oi_empresa PID FROM SEL02_REQ WHERE oi_req={#SOURCE:@PID}')/ROWS/ROW
				</qry:xquery>
				<qry:out>
					<qry:attribute name="code" value="$r/@CODE+'-'+#SOURCE:@CODE" type="Nomad.NSystem.String"/>
					<qry:attribute name="text" value="$r/@TEXT+'-'+#SOURCE:@TEXT" type="Nomad.NSystem.String"/>
					<qry:attribute name="PID" value="$r/@PID" type="Nomad.NSystem.Int"/>
					<qry:insert-select name="RS4" doc-path="."/>
				</qry:out>
			</qry:select>
			<qry:select name="RS4" doc="SOURCE">
				<qry:xquery>
					for $r in table('SELECT oi_empresa ID, c_empresa CODE, d_empresa TEXT FROM ORG03_EMPRESAS WHERE oi_empresa={#SOURCE:@PID}')/ROWS/ROW
				</qry:xquery>
				<qry:out>
					<qry:attribute name="code" value="$r/@CODE+'-'+#SOURCE:@CODE" type="Nomad.NSystem.String"/>
					<qry:attribute name="text" value="$r/@TEXT+'-'+#SOURCE:@TEXT" type="Nomad.NSystem.String"/>
				</qry:out>
			</qry:select>
		</qry:define>
		<qry:define name="C2X">
			<qry:main doc="SOURCE">
				<qry:append-doc name="INDOC" doc-path="#SOURCE:helper-mess"/>
				<qry:element name="ROW">
					<qry:insert-select name="RS1" doc-path="#SOURCE:"/>
				</qry:element>
			</qry:main>
			<qry:select name="RS1" doc="SOURCE">
				<qry:xquery>
					for $r in table('SELECT oi_empresa ID, c_empresa CODE, d_empresa TEXT FROM ORG03_EMPRESAS WHERE c_empresa={substring_before(#INDOC:@CODE,\'-\')} ')/ROWS/ROW
				</qry:xquery>
				<qry:out>
					<qry:attribute name="SUB_SEARCH" value="substring_after(#INDOC:@CODE,'-')" type="Nomad.NSystem.String"/>
					<qry:attribute name="PARENTID" value="$r/@ID" type="Nomad.NSystem.String"/>
					<qry:attribute name="code" value="$r/@CODE" type="Nomad.NSystem.String"/>
					<qry:attribute name="text" value="$r/@TEXT" type="Nomad.NSystem.String"/>
					<qry:insert-select name="RS2" doc-path="."/>
				</qry:out>
			</qry:select>
			<qry:select name="RS2" doc="SOURCE">
				<qry:xquery>
					for $r in table('SELECT oi_req ID, c_req CODE, d_req TEXT FROM SEL02_REQ WHERE c_req={substring_before(#SOURCE:@SUB_SEARCH,\'-\')}  AND oi_empresa={#SOURCE:@PARENTID}')/ROWS/ROW
				</qry:xquery>
				<qry:out>
					<qry:attribute name="SUB_SEARCH" value="substring_after(#SOURCE:@SUB_SEARCH,'-')" type="Nomad.NSystem.String"/>
					<qry:attribute name="PARENTID" value="$r/@ID" type="Nomad.NSystem.String"/>
					<qry:attribute name="code" value="#SOURCE:@CODE+'-'+$r/@CODE" type="Nomad.NSystem.String"/>
					<qry:attribute name="text" value="#SOURCE:@TEXT+'-'+$r/@TEXT" type="Nomad.NSystem.String"/>
					<qry:insert-select name="RS3" doc-path="."/>
				</qry:out>
			</qry:select>
			<qry:select name="RS3" doc="SOURCE">
				<qry:xquery>
					for $r in table('SELECT oi_referencia ID, c_referencia CODE, d_referencia TEXT FROM SEL02_REFERENCIAS WHERE c_referencia={substring_before(#SOURCE:@SUB_SEARCH,\'-\')}  AND oi_req={#SOURCE:@PARENTID}')/ROWS/ROW
				</qry:xquery>
				<qry:out>
					<qry:attribute name="SUB_SEARCH" value="substring_after(#SOURCE:@SUB_SEARCH,'-')" type="Nomad.NSystem.String"/>
					<qry:attribute name="PARENTID" value="$r/@ID" type="Nomad.NSystem.String"/>
					<qry:attribute name="code" value="#SOURCE:@CODE+'-'+$r/@CODE" type="Nomad.NSystem.String"/>
					<qry:attribute name="text" value="#SOURCE:@TEXT+'-'+$r/@TEXT" type="Nomad.NSystem.String"/>
					<qry:insert-select name="RS4" doc-path="."/>
					<qry:insert-select name="RS04" doc-path="."/>
				</qry:out>
			</qry:select>
			<qry:select name="RS4" doc="SOURCE">
				<qry:xquery>
					for $r in table('SELECT oi_reclutado ID, c_reclutado CODE,  d_ape_y_nom TEXT
FROM SEL13_RECLUTADOS, per02_personal_emp, per01_personal 
WHERE 
SEL13_RECLUTADOS.oi_personal_emp is not null and 
SEL13_RECLUTADOS.oi_personal_emp = per02_personal_emp.oi_personal_emp				
and per02_personal_emp.oi_personal = per01_personal.oi_personal
and				
c_reclutado={substring_before(#SOURCE:@SUB_SEARCH,\'-\')}  
				AND oi_referencia={#SOURCE:@PARENTID}')/ROWS/ROW
				</qry:xquery>
				<qry:out>
					<qry:attribute name="SUB_SEARCH" value="''" type="Nomad.NSystem.String"/>
					<qry:attribute name="PARENTID" value="''" type="Nomad.NSystem.String"/>
					<qry:attribute name="id" value="$r/@ID" type="Nomad.NSystem.Int"/>
					<qry:attribute name="value" value="$r/@ID" type="Nomad.NSystem.Int"/>
					<qry:attribute name="code" value="#SOURCE:@CODE+'-'+$r/@CODE" type="Nomad.NSystem.String"/>
					<qry:attribute name="text" value="#SOURCE:@TEXT+'-'+$r/@TEXT" type="Nomad.NSystem.String"/>
					<qry:insert-select name="RS04" doc-path="."/>
				</qry:out>
			</qry:select>
			<qry:select name="RS04" doc="SOURCE">
				<qry:xquery>
					for $r in table('SELECT oi_reclutado ID, c_reclutado CODE, d_postulante TEXT
FROM SEL13_RECLUTADOS, sel01_postulante
WHERE 
SEL13_RECLUTADOS.oi_postulante is not null and 
SEL13_RECLUTADOS.oi_postulante = sel01_postulante.oi_postulante
and 
c_reclutado={substring_before(#SOURCE:@SUB_SEARCH,\'-\')}  
AND oi_referencia={#SOURCE:@PARENTID}')/ROWS/ROW
				</qry:xquery>
				<qry:out>
					<qry:attribute name="SUB_SEARCH" value="''" type="Nomad.NSystem.String"/>
					<qry:attribute name="PARENTID" value="''" type="Nomad.NSystem.String"/>
					<qry:attribute name="id" value="$r/@ID" type="Nomad.NSystem.Int"/>
					<qry:attribute name="value" value="$r/@ID" type="Nomad.NSystem.Int"/>
					<qry:attribute name="code" value="#SOURCE:@CODE+'-'+$r/@CODE" type="Nomad.NSystem.String"/>
					<qry:attribute name="text" value="#SOURCE:@TEXT+'-'+$r/@TEXT" type="Nomad.NSystem.String"/>
				</qry:out>
			</qry:select>
		</qry:define>
		<qry:define name="HELP">
			<qry:main doc="SOURCE">
				<qry:element name="ROW">
					<qry:attribute name="PARENTID" value="#SOURCE:ROW/@PARENTID" type="Nomad.NSystem.Int"/>
					<qry:attribute name="CODE" value="#SOURCE:ROW/@CODE" type="Nomad.NSystem.String"/>
					<qry:attribute name="TEXT" value="#SOURCE:ROW/@TEXT" type="Nomad.NSystem.String"/>
					<qry:insert-select name="RS2" doc-path="."/>
					<qry:element name="ROWS">
						<qry:insert-select name="RS1" doc-path=".."/>
					</qry:element>
				</qry:element>
			</qry:main>
			<qry:select name="RS2" doc="SOURCE">
				<qry:xquery>
					for $r in table('SELECT oi_referencia ID, c_referencia CODE, d_referencia TEXT, oi_req PID FROM SEL02_REFERENCIAS WHERE oi_referencia={#SOURCE:@PARENTID}')/ROWS/ROW
				</qry:xquery>
				<qry:out>
					<qry:attribute name="code" value="$r/@CODE" type="Nomad.NSystem.String"/>
					<qry:attribute name="text" value="$r/@TEXT" type="Nomad.NSystem.String"/>
					<qry:attribute name="PID" value="$r/@PID" type="Nomad.NSystem.Int"/>
					<qry:insert-select name="RS3" doc-path="."/>
				</qry:out>
			</qry:select>
			<qry:select name="RS3" doc="SOURCE">
				<qry:xquery>
					for $r in table('SELECT oi_req ID, c_req CODE, d_req TEXT, oi_empresa PID FROM SEL02_REQ WHERE oi_req={#SOURCE:@PID}')/ROWS/ROW
				</qry:xquery>
				<qry:out>
					<qry:attribute name="code" value="$r/@CODE+'-'+#SOURCE:@CODE" type="Nomad.NSystem.String"/>
					<qry:attribute name="text" value="$r/@TEXT+'-'+#SOURCE:@TEXT" type="Nomad.NSystem.String"/>
					<qry:attribute name="PID" value="$r/@PID" type="Nomad.NSystem.Int"/>
					<qry:insert-select name="RS4" doc-path="."/>
				</qry:out>
			</qry:select>
			<qry:select name="RS4" doc="SOURCE">
				<qry:xquery>
					for $r in table('SELECT oi_empresa ID, c_empresa CODE, d_empresa TEXT FROM ORG03_EMPRESAS WHERE oi_empresa={#SOURCE:@PID}')/ROWS/ROW
				</qry:xquery>
				<qry:out>
					<qry:attribute name="code" value="$r/@CODE+'-'+#SOURCE:@CODE" type="Nomad.NSystem.String"/>
					<qry:attribute name="text" value="$r/@TEXT+'-'+#SOURCE:@TEXT" type="Nomad.NSystem.String"/>
				</qry:out>
			</qry:select>
			<qry:select name="RS1" doc="SOURCE">
				<qry:xquery>
					for $r in table('SELECT oi_reclutado ID, c_reclutado CODE, d_reclutado TEXT FROM SEL13_RECLUTADOS WHERE oi_referencia={#SOURCE:@PARENTID}')/ROWS/ROW
				</qry:xquery>
				<qry:out>
					<qry:element name="ROW">
						<qry:attribute name="id" value="$r/@ID" type="Nomad.NSystem.Int"/>
						<qry:attribute name="value" value="$r/@ID" type="Nomad.NSystem.Int"/>
						<qry:attribute name="code1" value="$r/@CODE" type="Nomad.NSystem.String"/>
						<qry:attribute name="text1" value="$r/@TEXT" type="Nomad.NSystem.String"/>
						<qry:attribute name="code" value="#SOURCE:@CODE+'-'+$r/@CODE" type="Nomad.NSystem.String"/>
						<qry:attribute name="text" value="#SOURCE:@TEXT+'-'+$r/@TEXT" type="Nomad.NSystem.String"/>
					</qry:element>
				</qry:out>
			</qry:select>
		</qry:define>
		<qry:define name="PRELOAD">
			<qry:main doc="SOURCE">
				<qry:element name="ROW">
					<qry:insert-select name="RS2" doc-path="#SOURCE:helper-mess"/>
					<qry:insert-select name="RS3" doc-path="."/>
					<qry:element name="ROWS">
						<qry:insert-select name="RS1" doc-path=".."/>
						<qry:insert-select name="RS0" doc-path=".."/>
					</qry:element>
				</qry:element>
			</qry:main>
			<qry:select name="RS3" doc="SOURCE">
				<qry:xquery>
					for $r in table('SELECT oi_referencia ID, c_referencia CODE, d_referencia TEXT, oi_req PID FROM SEL02_REFERENCIAS WHERE oi_referencia={#SOURCE:@PARENTID}')/ROWS/ROW
				</qry:xquery>
				<qry:out>
					<qry:attribute name="code" value="$r/@CODE" type="Nomad.NSystem.String"/>
					<qry:attribute name="text" value="$r/@TEXT" type="Nomad.NSystem.String"/>
					<qry:attribute name="PID" value="$r/@PID" type="Nomad.NSystem.Int"/>
					<qry:insert-select name="RS4" doc-path="."/>
				</qry:out>
			</qry:select>
			<qry:select name="RS4" doc="SOURCE">
				<qry:xquery>
					for $r in table('SELECT oi_req ID, c_req CODE, d_req TEXT, oi_empresa PID FROM SEL02_REQ WHERE oi_req={#SOURCE:@PID}')/ROWS/ROW
				</qry:xquery>
				<qry:out>
					<qry:attribute name="code" value="$r/@CODE+'-'+#SOURCE:@CODE" type="Nomad.NSystem.String"/>
					<qry:attribute name="text" value="$r/@TEXT+'-'+#SOURCE:@TEXT" type="Nomad.NSystem.String"/>
					<qry:attribute name="PID" value="$r/@PID" type="Nomad.NSystem.Int"/>
					<qry:insert-select name="RS5" doc-path="."/>
				</qry:out>
			</qry:select>
			<qry:select name="RS5" doc="SOURCE">
				<qry:xquery>
					for $r in table('SELECT oi_empresa ID, c_empresa CODE, d_empresa TEXT FROM ORG03_EMPRESAS WHERE oi_empresa={#SOURCE:@PID}')/ROWS/ROW
				</qry:xquery>
				<qry:out>
					<qry:attribute name="code" value="$r/@CODE+'-'+#SOURCE:@CODE" type="Nomad.NSystem.String"/>
					<qry:attribute name="text" value="$r/@TEXT+'-'+#SOURCE:@TEXT" type="Nomad.NSystem.String"/>
				</qry:out>
			</qry:select>
			<qry:select name="RS2" doc="SOURCE">
				<qry:xquery>
					for $r in table('select oi_referencia from SEL13_RECLUTADOS where oi_reclutado={#SOURCE:@ID}')/ROWS/ROW
				</qry:xquery>
				<qry:out>
					<qry:attribute name="PARENTID" value="$r/@oi_referencia" type="Nomad.NSystem.Int"/>
				</qry:out>
			</qry:select>
			<qry:select name="RS1" doc="SOURCE">
				<qry:xquery>
					for $r in table('SELECT oi_reclutado ID, c_reclutado CODE,  d_ape_y_nom TEXT
FROM SEL13_RECLUTADOS, per02_personal_emp, per01_personal 
WHERE 
SEL13_RECLUTADOS.oi_personal_emp is not null and 
SEL13_RECLUTADOS.oi_personal_emp = per02_personal_emp.oi_personal_emp				
and per02_personal_emp.oi_personal = per01_personal.oi_personal
and				
oi_referencia=={#SOURCE:@PARENTID} ')/ROWS/ROW
				</qry:xquery>
				<qry:out>
					<qry:element name="ROW">
						<qry:attribute name="id" value="$r/@ID" type="Nomad.NSystem.Int"/>
						<qry:attribute name="value" value="$r/@ID" type="Nomad.NSystem.Int"/>
						<qry:attribute name="code1" value="$r/@CODE" type="Nomad.NSystem.String"/>
						<qry:attribute name="text1" value="$r/@TEXT" type="Nomad.NSystem.String"/>
						<qry:attribute name="code" value="#SOURCE:@CODE+'-'+$r/@CODE" type="Nomad.NSystem.String"/>
						<qry:attribute name="text" value="#SOURCE:@TEXT+'-'+$r/@TEXT" type="Nomad.NSystem.String"/>
					</qry:element>
				</qry:out>
			</qry:select>
			<qry:select name="RS0" doc="SOURCE">
				<qry:xquery>
					for $r in table('SELECT oi_reclutado ID, c_reclutado CODE, d_postulante TEXT
FROM SEL13_RECLUTADOS, sel01_postulante
WHERE 
SEL13_RECLUTADOS.oi_postulante is not null and 
SEL13_RECLUTADOS.oi_postulante = sel01_postulante.oi_postulante
and 
oi_referencia={#SOURCE:@PARENTID} ')/ROWS/ROW
				</qry:xquery>
				<qry:out>
					<qry:element name="ROW">
						<qry:attribute name="id" value="$r/@ID" type="Nomad.NSystem.Int"/>
						<qry:attribute name="value" value="$r/@ID" type="Nomad.NSystem.Int"/>
						<qry:attribute name="code1" value="$r/@CODE" type="Nomad.NSystem.String"/>
						<qry:attribute name="text1" value="$r/@TEXT" type="Nomad.NSystem.String"/>
						<qry:attribute name="code" value="#SOURCE:@CODE+'-'+$r/@CODE" type="Nomad.NSystem.String"/>
						<qry:attribute name="text" value="#SOURCE:@TEXT+'-'+$r/@TEXT" type="Nomad.NSystem.String"/>
					</qry:element>
				</qry:out>
			</qry:select>
		</qry:define>
	</flow:declare>
</flow:flow>
