<flow:flow xmlns:flow="nomad_engine.flow" xmlns:doc="nomad_engine.doc" xmlns:qry="nomad_engine.qry" name="NucleusRH.Base.Gestion_de_Postulantes.Requerimientos.REQ.c_tipo_orden.flow">
	<flow:info label="Flow guia para NucleusRH.Base.Gestion_de_Postulantes.Requerimientos.REQ.c_tipo_orden.flow"/>
	<flow:main doc="SOURCE">
		<flow:action name="COMBO">
			<doc:load-qry output-doc="RS" qry="COMBO"/>
			<flow:exit-flow return-path="#RS:"/>
		</flow:action>
	</flow:main>
	<flow:declare>
		<doc:define name="RS"/>
		<qry:define name="COMBO">
			<qry:main doc="SOURCE">
				<qry:element name="ROWS">
					<qry:element name="OPT">
						<qry:attribute type="Nomad.NSystem.String" value="'ASC'" name="value"/>
						<qry:attribute type="Nomad.NSystem.String" value="'ASC'" name="code"/>
						<qry:attribute type="Nomad.NSystem.String" value="'Ascendente'" name="text"/>
					</qry:element>
					<qry:element name="OPT">
						<qry:attribute type="Nomad.NSystem.String" value="'DESC'" name="value"/>
						<qry:attribute type="Nomad.NSystem.String" value="'DESC'" name="code"/>
						<qry:attribute type="Nomad.NSystem.String" value="'Descendente'" name="text"/>
					</qry:element>
				</qry:element>
			</qry:main>
		</qry:define>
	</flow:declare>
</flow:flow>
