<flow:flow xmlns:flow="nomad_engine.flow" xmlns:doc="nomad_engine.doc" xmlns:qry="nomad_engine.qry" name="NucleusRH.Base.Gestion_de_Postulantes.Requerimientos.REQ.c_orden.flow">
	<flow:info label="Flow guia para NucleusRH.Base.Gestion_de_Postulantes.Requerimientos.REQ.c_orden.flow"/>
	<flow:main doc="SOURCE">
		<flow:action name="COMBO">
			<doc:load-qry output-doc="RS" qry="COMBO"/>
			<flow:exit-flow return-path="#RS:"/>
		</flow:action>
	</flow:main>
	<flow:declare>
		<doc:define name="RS"/>
		<qry:define name="COMBO">
			<qry:main doc="SOURCE">
				<qry:element name="ROWS">
					<qry:element name="OPT">
						<qry:attribute type="Nomad.NSystem.String" value="'f_req'" name="value"/>
						<qry:attribute type="Nomad.NSystem.String" value="'f_req'" name="code"/>
						<qry:attribute type="Nomad.NSystem.String" value="'Fecha del Requerimiento'" name="text"/>
					</qry:element>
					<qry:element name="OPT">
						<qry:attribute type="Nomad.NSystem.String" value="'ca_estado'" name="value"/>
						<qry:attribute type="Nomad.NSystem.String" value="'ca_estado'" name="code"/>
						<qry:attribute type="Nomad.NSystem.String" value="'Estado del Requerimiento'" name="text"/>
					</qry:element>
					<qry:element name="OPT">
						<qry:attribute type="Nomad.NSystem.String" value="'c_req'" name="value"/>
						<qry:attribute type="Nomad.NSystem.String" value="'c_req'" name="code"/>
						<qry:attribute type="Nomad.NSystem.String" value="'Codigo del Requerimiento'" name="text"/>
					</qry:element>
					<qry:element name="OPT">
						<qry:attribute type="Nomad.NSystem.String" value="'d_req'" name="value"/>
						<qry:attribute type="Nomad.NSystem.String" value="'d_req'" name="code"/>
						<qry:attribute type="Nomad.NSystem.String" value="'Descripcion del Requerimiento'" name="text"/>
					</qry:element>
					<qry:element name="OPT">
						<qry:attribute type="Nomad.NSystem.String" value="'c_empresa'" name="value"/>
						<qry:attribute type="Nomad.NSystem.String" value="'c_empresa'" name="code"/>
						<qry:attribute type="Nomad.NSystem.String" value="'Codigo Empresa'" name="text"/>
					</qry:element>
				</qry:element>
			</qry:main>
		</qry:define>
	</flow:declare>
</flow:flow>
