<flow:flow xmlns:flow="nomad_engine.flow" xmlns:doc="nomad_engine.doc" default_action="initialize" name="EditParameters">
	<flow:info label="EditParameters"/>
	<flow:declare>
		<doc:define name="DATA">
			<PARAMS>
				<PARAM c_modulo="LIQ" c_parametro="PathForm649" d_clase="LIQ" d_parametro="Ruta para almacenar Formularios 649" d_tipo_parametro="A"/>
				<PARAM c_modulo="LIQ" c_parametro="PathForm572" d_clase="LIQ" d_parametro="Ruta para almacenar Formularios 572" d_tipo_parametro="A"/>
				<PARAM c_modulo="LIQ" c_parametro="PathConceptos" d_clase="LIQ" d_parametro="Muestra los conceptos que son base de c&#225;lculo de embargos" d_tipo_parametro="A"/>
				<PARAM c_modulo="LIQ" c_parametro="cant_dec_liq" d_clase="LIQ" d_parametro="Cantidad de decimales a usar en la liquidaci&#243;n" d_tipo_parametro="E"/>
				<PARAM c_modulo="LIQ" c_parametro="ProxNumDesde" d_clase="LIQ" d_parametro="Pr&#243;ximo numero de recibo desde" d_tipo_parametro="E"/>
				<PARAM c_modulo="LIQ" c_parametro="noValidarCerradas" d_clase="LIQ" d_parametro="Indica si se debe omitir la validaci&#243;n de liquidaciones cerradas (listas, libro ley)" d_tipo_parametro="L"/>
				<PARAM c_modulo="LIQ" c_parametro="AdmNumRec" d_clase="LIQ" d_parametro="Administrar N&#250;meros de Recibos" d_tipo_parametro="L"/>
				<PARAM c_modulo="LIQ" c_parametro="PlantillaLibroLey" d_clase="LibroLey" d_parametro="Se utiliza plantilla para Libro de Sueldos" d_tipo_parametro="L"/>
				<PARAM c_modulo="LIQ" c_parametro="DomicilioLibroLey" d_clase="LIQ" d_parametro="Mostrar domicilios en Libro de Sueldos" d_tipo_parametro="L"/>
				<PARAM c_modulo="LIQ" c_parametro="FamiliaresLibroLey" d_clase="LIQ" d_parametro="Mostrar familiares en Libro de Sueldos" d_tipo_parametro="L"/>
				<PARAM c_modulo="LIQ" c_parametro="flowPivot" d_clase="REPORTE" d_parametro="Indica el flow para abrir desde el legajo" d_tipo_parametro="A"/>
				<PARAM c_modulo="LIQ" c_parametro="flowRecibos" d_clase="REPORTE" d_parametro="Indica el flow para abrir los recibos desde el legajo" d_tipo_parametro="A"/>
				<PARAM c_modulo="LIQ" c_parametro="F1357CodImpuesto" d_clase="LIQ" d_parametro="Interfaz F1357 - Codigo de impuesto" d_tipo_parametro="A"/>
				<PARAM c_modulo="LIQ" c_parametro="F1357CodConcepto" d_clase="LIQ" d_parametro="Interfaz F1357 - Codigo de concepto" d_tipo_parametro="A"/>
				<PARAM c_modulo="LIQ" c_parametro="F1357NroForm" d_clase="LIQ" d_parametro="Interfaz F1357 - Numero de formulario" d_tipo_parametro="A"/>
				<PARAM c_modulo="LIQ" c_parametro="F1357VerSistema" d_clase="LIQ" d_parametro="Interfaz F1357 - Version del sistema" d_tipo_parametro="A"/>
				<PARAM c_modulo="LIQ" c_parametro="F1357IngresosMaximos" d_clase="LIQ" d_parametro="Interfaz F1357 - Legajos con ingresos iguales o superiores a" d_tipo_parametro="D"/>
				<PARAM c_modulo="LIQ" c_parametro="F1359IngresosMaximos" d_clase="LIQ" d_parametro="Interfaz F1359 - Legajos con ingresos iguales o superiores a" d_tipo_parametro="D"/>
				<PARAM c_modulo="LIQ" c_parametro="RemuneracionLibroLey" d_clase="LIQ" d_parametro="Mostrar Remuneracion Basica en Libro de Sueldos" d_tipo_parametro="L"/>
				<PARAM c_modulo="LIQ" c_parametro="DetalleAnticipo" d_clase="LIQ" d_parametro="Mostrar Total de Anticipos en Resumen del Libro de Sueldos" d_tipo_parametro="L"/>
				<PARAM c_modulo="LIQ" c_parametro="Reportef1357" d_clase="LIQ" d_parametro="Reporte 215 para importaci#ucleusDOC" d_tipo_parametro="L"/>
				<PARAM c_modulo="LIQ" c_parametro="F2122VerSistema" d_clase="LIQ" d_parametro="Interfaz F2122 - Version del sistema" d_tipo_parametro="A"/>
				<PARAM c_modulo="LIQ" c_parametro="F2122IngresosMaximos" d_clase="LIQ" d_parametro="Interfaz F2122 - Legajos con ingresos iguales o superiores a" d_tipo_parametro="D"/>
			</PARAMS>
		</doc:define>
	</flow:declare>
	<flow:main doc="SOURCE">
		<flow:action name="initialize">
			<flow:exec-method out-type="Nomad.NSystem.Proxy.NomadXML" out-doc="DATA" class="NucleusRH.Base.Organizacion.Parametros.PARAMETRO" method="ObtenerValores">
				<flow:param doc="DATA" type="Nomad.NSystem.Proxy.NomadXML" mode="in" name="PARAM"/>
			</flow:exec-method>
			<flow:open-form doc-path="#DATA:" mode="EDIT" form-class="NucleusRH.Base.Liquidacion.Parametros.PARAMETRO.edit.form"/>
		</flow:action>
	</flow:main>
	<flow:form mode="EDIT" form-class="NucleusRH.Base.Liquidacion.Parametros.PARAMETRO.edit.form" name="NucleusRH.Base.Liquidacion.Parametros.PARAMETRO.edit.form" doc="SOURCE">
		<flow:action name="SAVE">
			<flow:exec-method class="NucleusRH.Base.Organizacion.Parametros.PARAMETRO" method="GuardarValores">
				<flow:param doc="SOURCE" type="Nomad.NSystem.Proxy.NomadXML" mode="in" name="PARAM"/>
			</flow:exec-method>
			<flow:exit-flow return-path="#SOURCE:"/>
		</flow:action>
		<flow:action name="CANCEL">
			<flow:exit-flow return-path="#SOURCE:"/>
		</flow:action>
	</flow:form>
</flow:flow>
