<flow:flow name="NucleusRH.Base.Tiempos_Trabajados.Personal.ESPERANZAPER.guia.flow" extends="Nomad.simple.guia.flow" xmlns:doc="nomad_engine.form" xmlns:qry="nomad_engine.form" xmlns:flow="nomad_engine.form">
	<flow:info label="Flow guia para NucleusRH.Base.Tiempos_Trabajados.Personal.ESPERANZAPER.guia.flow"/>
	<flow:main doc="SOURCE">
		<flow:action name="HELP">
			<flow:log text-path="#SOURCE:" text="ppsource"/>
			<flow:html-gen out-file-path="#REPORT:@report" template-file="NucleusRH.Base.Tiempos_Trabajados.ESPERANZAPER.rpt" input-doc-path="#SOURCE:"/>
			<flow:open-form form-class="NucleusRH.Base.Tiempos_Trabajados.Personal.ESPERANZAPER.guia.form" doc-path="#REPORT:" mode="REPORT"/>
		</flow:action>
	</flow:main>
	<flow:declare>
		<doc:define name="REPORT"/>
	</flow:declare>
	<flow:form mode="REPORT" name="NucleusRH.Base.Tiempos_Trabajados.Personal.ESPERANZAPER.guia.form:REPORT" form-class="NucleusRH.Base.Tiempos_Trabajados.Personal.ESPERANZAPER.guia.form" parent-doc="INVAL" doc="REPORT">
		<flow:action name="BACK">
			<flow:close-form/>
		</flow:action>
	</flow:form>
</flow:flow>
