<flow:flow name="NucleusRH.Base.Tiempos_Trabajados.Personal.LICENCIA_PER.guia.flow" extends="NucleusRH.Base.Personal.Licencias.LICENCIA.guia.autoflow" xmlns:doc="nomad_engine.form" xmlns:qry="nomad_engine.form" xmlns:flow="nomad_engine.form">
	<flow:info label="Flow guia para NucleusRH.Base.Personal.Licencias.LICENCIA"/>
	<flow:main doc="SOURCE"/>
	<flow:declare>
		<qry:define declare="&lt;helper-mess ID=&quot;1&quot;/&gt;" name="X2C">
			<qry:main doc="SOURCE">
				<qry:element name="ROW">
					<qry:insert-select doc-path="#SOURCE:" name="RS1"/>
				</qry:element>
			</qry:main>
			<qry:select doc="SOURCE" name="RS1">
				<qry:xquery>
					for $r in sql('
				SELECT PER16_LICENCIAS.oi_licencia as ID, 
				TTA01_TIPOHORAS.c_tipohora as CODE, 
				TTA01_TIPOHORAS.d_tipohora as TEXT, 
				SEC.policy  
				FROM PER16_LICENCIAS, 
				TTA01_TIPOHORAS,
				NMD_SECURITY(class=\'NucleusRH.Base.Personal.Licencias.LICENCIA\') as SEC 
				JOIN PER16_LICENCIAS.oi_licencia LEFT OUTER SEC.id,
				TTA01_TIPOHORAS.oi_licencia INNER PER16_LICENCIAS.oi_licencia
				WHERE PER16_LICENCIAS.oi_licencia={#SOURCE:helper-mess/@ID} 
				ORDER BY CODE asc
			')/ROWS/ROW
				</qry:xquery>
				<qry:out>
					<qry:attribute value="$r/@ID" name="id"/>
					<qry:attribute value="$r/@ID" name="value"/>
					<qry:attribute value="$r/@CODE" name="code"/>
					<qry:attribute value="$r/@TEXT" name="text"/>
				</qry:out>
			</qry:select>
		</qry:define>
		<qry:define name="C2X">
			<qry:main doc="SOURCE">
				<qry:append-doc doc-path="#SOURCE:helper-mess" name="INDOC"/>
				<qry:element name="ROW">
					<qry:insert-select doc-path="#SOURCE:" name="RS1"/>
				</qry:element>
			</qry:main>
			<qry:select doc="SOURCE" name="RS1">
				<qry:xquery>
					for $r in sql('
				SELECT PER16_LICENCIAS.oi_licencia as ID, 
				TTA01_TIPOHORAS.c_tipohora as CODE, 
				TTA01_TIPOHORAS.d_tipohora as TEXT, 
				SEC.policy  
				FROM PER16_LICENCIAS, 
				TTA01_TIPOHORAS,
				NMD_SECURITY(class=\'NucleusRH.Base.Personal.Licencias.LICENCIA\') as SEC 
				JOIN PER16_LICENCIAS.oi_licencia LEFT OUTER SEC.id,
				TTA01_TIPOHORAS.oi_licencia INNER PER16_LICENCIAS.oi_licencia
				WHERE TTA01_TIPOHORAS.c_tipohora={substring_before(#INDOC:@CODE,\'-\')} 				
				ORDER BY CODE asc
			')/ROWS/ROW
				</qry:xquery>
				<qry:out>
					<qry:attribute value="$r/@policy" name="policy"/>
					<qry:attribute value="''" name="SUB_SEARCH"/>
					<qry:attribute value="''" name="PARENTID"/>
					<qry:attribute value="$r/@ID" name="id"/>
					<qry:attribute value="$r/@ID" name="value"/>
					<qry:attribute value="$r/@CODE" name="code"/>
					<qry:attribute value="$r/@TEXT" name="text"/>
				</qry:out>
			</qry:select>
		</qry:define>
		<qry:define name="HELP">
			<qry:main doc="SOURCE">
				<qry:element name="ROWS">
					<qry:insert-select doc-path="#SOURCE:" name="RS1"/>
				</qry:element>
			</qry:main>
			<qry:select doc="SOURCE" name="RS1">
				<qry:xquery>
					for $r in sql('
				SELECT PER16_LICENCIAS.oi_licencia as ID, 
				TTA01_TIPOHORAS.c_tipohora as CODE, 
				TTA01_TIPOHORAS.d_tipohora as TEXT, 
				SEC.policy  
				FROM PER16_LICENCIAS, 
				TTA01_TIPOHORAS,
				NMD_SECURITY(class=\'NucleusRH.Base.Personal.Licencias.LICENCIA\') as SEC 
				JOIN PER16_LICENCIAS.oi_licencia LEFT OUTER SEC.id,
				TTA01_TIPOHORAS.oi_licencia INNER PER16_LICENCIAS.oi_licencia				
				ORDER BY CODE asc
			')/ROWS/ROW
				</qry:xquery>
				<qry:out>
					<qry:element name="ROW">
						<qry:attribute value="$r/@ID" name="id"/>
						<qry:attribute value="$r/@ID" name="value"/>
						<qry:attribute value="$r/@CODE" name="code"/>
						<qry:attribute value="$r/@TEXT" name="text"/>
						<qry:attribute value="$r/@policy" name="policy"/>
					</qry:element>
				</qry:out>
			</qry:select>
		</qry:define>
	</flow:declare>
</flow:flow>
