<flow:flow xmlns:flow="nomad_engine.flow" xmlns:qry="nomad_engine.qry" name="NucleusRH.Base.Tiempos_Trabajados.Personal.PERSONAL_EMP.EMPRESA.guia.flow" extends="NucleusRH.Base.Personal.LegajoEmpresa.PERSONAL_EMP.EMPRESA.guia.flow">
	<flow:main doc="SOURCE">
		<flow:action name="OPEN-GUIA">
			<flow:open-form form-class="NucleusRH.Base.Personal.LegajoEmpresa.PERSONAL_EMP.EMPRESA.guia.form" parent-doc-path="#SOURCE:" doc-path="#SOURCE:" mode="SHOW"/>
		</flow:action>
	</flow:main>
	<flow:declare>
		<qry:define declare="                   &lt;helper-mess oi_empresa=&quot;1&quot; id=&quot;1&quot;/&gt;" name="X2C">
			<qry:main doc="SOURCE">
				<qry:element name="ROW">
					<qry:insert-select name="RS1" doc-path="#SOURCE:helper-mess"/>
				</qry:element>
			</qry:main>
			<qry:select name="RS1" doc="SOURCE">
				<qry:xquery>
					for $r in sql('
				SELECT 
					PER02_PERSONAL_EMP.oi_personal_emp
					, PER02_PERSONAL_EMP.e_numero_legajo
					, PER01_PERSONAL.d_ape_y_nom
					, PER02_PERSONAL_EMP.f_ingreso
				FROM 
					PER02_PERSONAL_EMP
					, PER01_PERSONAL
					, TTA04_PERSONAL
				JOIN 
					PER02_PERSONAL_EMP.oi_personal INNER PER01_PERSONAL.oi_personal
					, PER02_PERSONAL_EMP.oi_personal_emp INNER TTA04_PERSONAL.oi_personal_emp
				WHERE 
					PER02_PERSONAL_EMP.oi_empresa = {#SOURCE:@oi_empresa}
					AND PER02_PERSONAL_EMP.oi_personal_emp = {#SOURCE:@id}
					AND PER02_PERSONAL_EMP.oi_indic_activo = \'1\'
			')ROWS/ROW
				</qry:xquery>
				<qry:out>
					<qry:attribute value="$r/@oi_personal_emp" name="id"/>
					<qry:attribute value="$r/@oi_personal_emp" name="value"/>
					<qry:attribute value="$r/@e_numero_legajo" name="code"/>
					<qry:attribute value="$r/@d_ape_y_nom" name="text"/>
					<qry:attribute value="$r/@f_ingreso" name="f_ingreso"/>
					<qry:insert-select doc-path="." name="SECURITY"/>
				</qry:out>
			</qry:select>
			<qry:select doc="PARAM" name="SECURITY">
				<qry:xquery>
					for $r in sql('
				SELECT NMD_SECURITY.policy 
				FROM NMD_SECURITY 
				WHERE NMD_SECURITY.class=\'NucleusRH.Base.Personal.LegajoEmpresa.PERSONAL_EMP\' 
				AND NMD_SECURITY.id={#PARAM:@id}
			')/ROWS/ROW
				</qry:xquery>
				<qry:out>
					<qry:attribute value="$r/@policy" name="policy"/>
				</qry:out>
			</qry:select>
		</qry:define>
		<qry:define declare="&lt;helper-mess oi_empresa=&quot;1&quot; code=&quot;273&quot;/&gt;" name="C2X">
			<qry:main doc="SOURCE">
				<qry:element name="ROW">
					<qry:insert-select name="RS1" doc-path="#SOURCE:helper-mess"/>
				</qry:element>
			</qry:main>
			<qry:select name="RS1" doc="SOURCE">
				<qry:xquery>
					for $r in sql('
				SELECT 
					PER02_PERSONAL_EMP.oi_personal_emp
					, PER02_PERSONAL_EMP.e_numero_legajo
					, PER01_PERSONAL.d_ape_y_nom
					, PER02_PERSONAL_EMP.f_ingreso
				FROM 
					PER02_PERSONAL_EMP
					, PER01_PERSONAL
					, TTA04_PERSONAL
				JOIN 
					PER02_PERSONAL_EMP.oi_personal INNER PER01_PERSONAL.oi_personal
					, PER02_PERSONAL_EMP.oi_personal_emp INNER TTA04_PERSONAL.oi_personal_emp
				WHERE 
					PER02_PERSONAL_EMP.oi_empresa = {#SOURCE:@oi_empresa}
					AND PER02_PERSONAL_EMP.e_numero_legajo = {#SOURCE:@CODE}
					AND PER02_PERSONAL_EMP.oi_indic_activo = \'1\'
			')ROWS/ROW
				</qry:xquery>
				<qry:out>
					<qry:attribute value="$r/@oi_personal_emp" name="id"/>
					<qry:attribute value="$r/@oi_personal_emp" name="value"/>
					<qry:attribute value="$r/@e_numero_legajo" name="code"/>
					<qry:attribute value="$r/@d_ape_y_nom" name="text"/>
					<qry:attribute value="$r/@f_ingreso" name="f_ingreso"/>
					<qry:insert-select doc-path="." name="SECURITY"/>
				</qry:out>
			</qry:select>
			<qry:select doc="PARAM" name="SECURITY">
				<qry:xquery>
					for $r in sql('
				SELECT NMD_SECURITY.policy 
				FROM NMD_SECURITY 
				WHERE NMD_SECURITY.class=\'NucleusRH.Base.Personal.LegajoEmpresa.PERSONAL_EMP\' 
				AND NMD_SECURITY.id={#PARAM:@id}
			')/ROWS/ROW
				</qry:xquery>
				<qry:out>
					<qry:attribute value="$r/@policy" name="policy"/>
				</qry:out>
			</qry:select>
		</qry:define>
		<qry:define declare="&lt;helper-mess oi_empresa=&quot;1&quot; /&gt;" name="HELP">
			<qry:main doc="SOURCE">
				<qry:element name="ROWS">
					<qry:insert-select name="RS1" doc-path="#SOURCE:helper-mess"/>
				</qry:element>
			</qry:main>
			<qry:select name="RS1" doc="SOURCE">
				<qry:xquery>
					for $r in sql('
				SELECT
					PER02_PERSONAL_EMP.oi_personal_emp
					, PER02_PERSONAL_EMP.e_numero_legajo
					, PER01_PERSONAL.d_ape_y_nom
					, PER02_PERSONAL_EMP.f_ingreso 
				FROM 
					PER02_PERSONAL_EMP
					, PER01_PERSONAL
					, TTA04_PERSONAL
				JOIN 
					PER02_PERSONAL_EMP.oi_personal INNER PER01_PERSONAL.oi_personal
					, PER02_PERSONAL_EMP.oi_personal_emp INNER TTA04_PERSONAL.oi_personal_emp
				WHERE 
					PER02_PERSONAL_EMP.oi_empresa = {#SOURCE:@oi_empresa}
					AND PER02_PERSONAL_EMP.oi_indic_activo = \'1\'				
				ORDER BY 
					e_numero_legajo ASC
			')ROWS/ROW
				</qry:xquery>
				<qry:out>
					<qry:element name="ROW">
						<qry:attribute value="$r/@oi_personal_emp" name="id"/>
						<qry:attribute value="$r/@oi_personal_emp" name="value"/>
						<qry:attribute value="$r/@e_numero_legajo" name="code"/>
						<qry:attribute value="$r/@d_ape_y_nom" name="text"/>
						<qry:attribute value="$r/@f_ingreso" name="f_ingreso"/>
						<qry:insert-select doc-path="." name="SECURITY"/>
					</qry:element>
				</qry:out>
			</qry:select>
			<qry:select doc="PARAM" name="SECURITY">
				<qry:xquery>
					for $r in sql('
				SELECT NMD_SECURITY.policy 
				FROM NMD_SECURITY 
				WHERE NMD_SECURITY.class=\'NucleusRH.Base.Personal.LegajoEmpresa.PERSONAL_EMP\' 
				AND NMD_SECURITY.id={#PARAM:@id}
			')/ROWS/ROW
				</qry:xquery>
				<qry:out>
					<qry:attribute value="$r/@policy" name="policy"/>
				</qry:out>
			</qry:select>
		</qry:define>
	</flow:declare>
</flow:flow>
