<flow:flow name="NucleusRH.Base.Tiempos_Trabajados.Personal.PERSONAL_EMP.LIQUIDACION.guia.flow" extends="Nomad.simple.guia.flow" xmlns:doc="nomad_engine.form" xmlns:qry="nomad_engine.form" xmlns:flow="nomad_engine.form">
	<flow:main doc="SOURCE">
		<flow:action name="OPEN-GUIA">
			<flow:open-form form-class="NucleusRH.Base.Tiempos_Trabajados.Personal.PERSONAL_EMP.LIQUIDACION.guia.form" parent-doc-path="#SOURCE:" doc-path="#SOURCE:" mode="SHOW"/>
		</flow:action>
	</flow:main>
	<flow:declare>
		<qry:define declare="&lt;helper-mess oi_liquidacion=&quot;10&quot; id=&quot;221&quot;/&gt;" name="X2C">
			<qry:main doc="SOURCE">
				<qry:element name="ROW">
					<qry:insert-select name="RS1" doc-path="#SOURCE:helper-mess"/>
				</qry:element>
			</qry:main>
			<qry:select xmlns:qry="nomad.xquery" name="RS1" doc="SOURCE">
				<qry:xquery>
					for $r in sql('
				SELECT PER02_PERSONAL_EMP.oi_personal_emp,
				PER02_PERSONAL_EMP.e_numero_legajo, PER01_PERSONAL.d_ape_y_nom
				FROM PER02_PERSONAL_EMP, PER01_PERSONAL
				JOIN PER02_PERSONAL_EMP.oi_personal INNER PER01_PERSONAL.oi_personal
				WHERE PER02_PERSONAL_EMP.oi_personal_emp = {#SOURCE:@id}
				{%? (#SOURCE:@oi_liquidacion != '')
					{% 
						AND PER02_PERSONAL_EMP.oi_personal_emp IN (SELECT TTA10_LIQUIDACPERS.oi_personal_emp 
													FROM TTA10_LIQUIDACPERS 
													WHERE TTA10_LIQUIDACPERS.oi_liquidacion = {%=#SOURCE:@oi_liquidacion%})
					%}
					{% AND 1 = 2	%} 					
				%}
				')ROWS/ROW
				</qry:xquery>
				<qry:out>
					<qry:attribute value="$r/@oi_personal_emp" name="id"/>
					<qry:attribute value="$r/@oi_personal_emp" name="value"/>
					<qry:attribute value="$r/@e_numero_legajo" name="code"/>
					<qry:attribute value="$r/@d_ape_y_nom" name="text"/>
					<qry:insert-select doc-path="." name="SECURITY"/>
				</qry:out>
			</qry:select>
			<qry:select doc="PARAM" name="SECURITY">
				<qry:xquery>
					for $r in sql('
				SELECT NMD_SECURITY.policy 
				FROM NMD_SECURITY 
				WHERE NMD_SECURITY.class=\'NucleusRH.Base.Personal.LegajoEmpresa.PERSONAL_EMP\' 
				AND NMD_SECURITY.id={#PARAM:@id}
			')/ROWS/ROW
				</qry:xquery>
				<qry:out>
					<qry:attribute value="$r/@policy" name="policy"/>
				</qry:out>
			</qry:select>
		</qry:define>
		<qry:define declare="&lt;helper-mess oi_liquidacion=&quot;10&quot; code=&quot;1&quot;/&gt;" name="C2X">
			<qry:main doc="SOURCE">
				<qry:element name="ROW">
					<qry:insert-select name="RS1" doc-path="#SOURCE:helper-mess"/>
				</qry:element>
			</qry:main>
			<qry:select xmlns:qry="nomad.xquery" name="RS1" doc="SOURCE">
				<qry:xquery>
					for $r in sql('
				SELECT PER02_PERSONAL_EMP.oi_personal_emp,
				PER02_PERSONAL_EMP.e_numero_legajo, PER01_PERSONAL.d_ape_y_nom
				FROM PER02_PERSONAL_EMP, PER01_PERSONAL
				JOIN PER02_PERSONAL_EMP.oi_personal INNER PER01_PERSONAL.oi_personal
				WHERE PER02_PERSONAL_EMP.e_numero_legajo = {substring_before(#SOURCE:@CODE,\'-\')}
				{%? (#SOURCE:@oi_liquidacion != '')
					{% 
						AND PER02_PERSONAL_EMP.oi_personal_emp IN (SELECT TTA10_LIQUIDACPERS.oi_personal_emp 
													FROM TTA10_LIQUIDACPERS 
													WHERE TTA10_LIQUIDACPERS.oi_liquidacion = {%=#SOURCE:@oi_liquidacion%})
					%}
					{% AND 1 = 2	%} 					
				%}
			')ROWS/ROW
				</qry:xquery>
				<qry:out>
					<qry:attribute value="$r/@oi_personal_emp" name="id"/>
					<qry:attribute value="$r/@oi_personal_emp" name="value"/>
					<qry:attribute value="$r/@e_numero_legajo" name="code"/>
					<qry:attribute value="$r/@d_ape_y_nom" name="text"/>
					<qry:insert-select doc-path="." name="SECURITY"/>
				</qry:out>
			</qry:select>
			<qry:select doc="PARAM" name="SECURITY">
				<qry:xquery>
					for $r in sql('
				SELECT NMD_SECURITY.policy 
				FROM NMD_SECURITY 
				WHERE NMD_SECURITY.class=\'NucleusRH.Base.Personal.LegajoEmpresa.PERSONAL_EMP\' 
				AND NMD_SECURITY.id={#PARAM:@id}
			')/ROWS/ROW
				</qry:xquery>
				<qry:out>
					<qry:attribute value="$r/@policy" name="policy"/>
				</qry:out>
			</qry:select>
		</qry:define>
		<qry:define declare="&lt;helper-mess oi_liquidacion=&quot;10&quot; /&gt;" name="HELP">
			<qry:main doc="SOURCE">
				<qry:element name="ROWS">
					<qry:insert-select name="RS1" doc-path="#SOURCE:helper-mess"/>
				</qry:element>
			</qry:main>
			<qry:select xmlns:qry="nomad.xquery" name="RS1" doc="SOURCE">
				<qry:xquery>
					for $r in sql('
				SELECT PER02_PERSONAL_EMP.oi_personal_emp,
				PER02_PERSONAL_EMP.e_numero_legajo, PER01_PERSONAL.d_ape_y_nom
				FROM PER02_PERSONAL_EMP, PER01_PERSONAL
				JOIN PER02_PERSONAL_EMP.oi_personal INNER PER01_PERSONAL.oi_personal
				WHERE 
				{%? (#SOURCE:@oi_liquidacion != '')
					{% 
						PER02_PERSONAL_EMP.oi_personal_emp IN (SELECT TTA10_LIQUIDACPERS.oi_personal_emp 
													FROM TTA10_LIQUIDACPERS 
													WHERE TTA10_LIQUIDACPERS.oi_liquidacion = {%=#SOURCE:@oi_liquidacion%})
					%}
					{% 1 = 2	%} 					
				%}
			')ROWS/ROW
				</qry:xquery>
				<qry:out>
					<qry:element name="ROW">
						<qry:attribute value="$r/@oi_personal_emp" name="id"/>
						<qry:attribute value="$r/@oi_personal_emp" name="value"/>
						<qry:attribute value="$r/@e_numero_legajo" name="code"/>
						<qry:attribute value="$r/@d_ape_y_nom" name="text"/>
						<qry:insert-select doc-path="." name="SECURITY"/>
					</qry:element>
				</qry:out>
			</qry:select>
			<qry:select doc="PARAM" name="SECURITY">
				<qry:xquery>
					for $r in sql('
				SELECT NMD_SECURITY.policy 
				FROM NMD_SECURITY 
				WHERE NMD_SECURITY.class=\'NucleusRH.Base.Personal.LegajoEmpresa.PERSONAL_EMP\' 
				AND NMD_SECURITY.id={#PARAM:@id}
			')/ROWS/ROW
				</qry:xquery>
				<qry:out>
					<qry:attribute value="$r/@policy" name="policy"/>
				</qry:out>
			</qry:select>
		</qry:define>
	</flow:declare>
	<flow:form mode="SHOW" doc="SOURCE" name="NucleusRH.Base.Tiempos_Trabajados.Personal.PERSONAL_EMP.LIQUIDACION.guia.form:SHOW" extends="Nomad.simple.guia.form:SHOW" form-class="NucleusRH.Base.Tiempos_Trabajados.Personal.PERSONAL_EMP.LIQUIDACION.guia.form"/>
</flow:flow>
