<flow:flow xmlns:flow="nomad_engine.flow" extends="NucleusProject.Base.Project.Proyectos.MAIN.flow" default_action="initialize" name="NucleusProject.Base.Project.Proyectos">
	<flow:declare/>
	<flow:main doc="PARAMETERS">
		<flow:action name="initialize">
			<flow:load-user-data name="NucleusProject.Base.Project.Proyectos.MAIN.flow_parameters" doc="PARAMETERS"/>
			<flow:open-form form-class="NucleusProject.Base.Project.Proyectos.MAIN.Fin1.form" doc-path="#PARAMETERS:" mode="SHOW"/>
		</flow:action>
	</flow:main>
	<flow:form form-class="NucleusProject.Base.Project.Proyectos.MAIN.Fin1.form" name="NucleusProject.Base.Project.Proyectos.MAIN.Fin1.form:SHOW" extends="NucleusProject.Base.Project.Proyectos.MAIN.form:SHOW" doc="SOURCE" mode="SHOW"/>
</flow:flow>
