<flow:flow xmlns:flow="nomad_engine.flow" extends="NucleusProject.Base.Project.Proyectos.MAIN.flow" default_action="initialize" name="NucleusProject.Base.Project.Proyectos">
	<flow:main doc="source">
		<flow:action name="initialize">
			<flow:open-form form-class="NucleusProject.Base.Project.Proyectos.MAIN_trab.form" doc-path="#source:" mode="SHOW"/>
		</flow:action>
	</flow:main>
	<flow:form extends="NucleusProject.Base.Project.Proyectos.MAIN.form:SHOW" form-class="NucleusProject.Base.Project.Proyectos.MAIN_trab.form" name="NucleusProject.Base.Project.Proyectos.MAIN_trab.form:SHOW" doc="SOURCE" mode="SHOW"/>
</flow:flow>
