<flow:flow xmlns:flow="nomad_engine.flow" xmlns:doc="nomad_engine.doc" xmlns:qry="nomad_engine.qry" name="NucleusProject.Base.Project.Proyectos.NEWMAIN.flow" default_action="initialize" extends="NucleusProject.Base.Project.Proyectos.autoflow">
	<flow:declare>
		<doc:define name="doc-start">
			<ROWS>
				<ROW id=""/>
			</ROWS>
		</doc:define>
		<doc:define name="PARAMIN"/>
		<doc:define name="AUXOBJ"/>
		<qry:define name="Templates">
			<qry:main doc="SOURCE">
				<qry:element name="ROWS">
					<ROW id="0" code="_blank" text="Proyecto en Blanco"/>
					<qry:insert-select name="SQL1"/>
				</qry:element>
			</qry:main>
			<qry:select name="SQL1" doc="PARAM">
				<qry:xquery>
					for $r in SQL('
				select 
					P.oi_proyecto,
					P.c_proyecto,
					P.d_proyecto
				from
					PRY01_PROYECTOS as P
				where
					isNull(P.oi_proyecto_parent) and P.c_estado=\'L\'
			')/ROWS/ROW
				</qry:xquery>
				<qry:out>
					<qry:element name="ROW">
						<qry:attribute name="id" value="$r/@oi_proyecto"/>
						<qry:attribute name="code" value="$r/@c_proyecto"/>
						<qry:attribute name="text" value="$r/@d_proyecto"/>
					</qry:element>
				</qry:out>
			</qry:select>
		</qry:define>
		<doc:define name="TEMPLATE"/>
		<doc:define name="PARAMETERS">
			<FILTER ocultarReporte=""/>
		</doc:define>
		<doc:define name="SOURCE"/>
		<doc:define name="FILTERDATA">
			<DATOS>
				<ROWS/>
				<EST/>
				<TPROYS/>
			</DATOS>
		</doc:define>
		<qry:define declare="&lt;DATOS f_inicio_desde=&quot;&quot; f_inicio_hasta=&quot;&quot; f_fin_desde=&quot;&quot; f_fin_hasta=&quot;&quot; c_proyecto=&quot;&quot; d_proyecto=&quot;Proyecto de Prueba&quot; oi_recurso=&quot;&quot; oi_cliente=&quot;&quot; c_estado=&quot;&quot; selected=&quot;&quot;&gt;&#13;&#10;&#9;&lt;ROWS /&gt;&#13;&#10;&#9;&lt;EST nmd-col=&quot;1&quot;&gt;&#13;&#10;&#9;&#9;&lt;C id=&quot;I&quot; /&gt;&#13;&#10;&#9;&#9;&lt;C id=&quot;T&quot; /&gt;&#13;&#10;&#9;&lt;/EST&gt;&#13;&#10;&lt;/DATOS&gt;" name="FILTER">
			<qry:main doc="FILTER">
				<qry:element name="ROWS">
					<qry:insert-select doc-path="#FILTER:DATOS" name="sql1"/>
				</qry:element>
			</qry:main>
			<qry:select doc="PARAM" name="sql1">
				<qry:xquery>
					for $r in sql('
			SELECT 
			t0.oi_proyecto as oi_proyecto
			FROM 
			PRY01_PROYECTOS as t0
			WHERE 1=1
      {%? (#PARAM:@f_inicio_hasta!='') {% AND t0.f_inicio &lt;= {#PARAM:@f_inicio_hasta} %} {% %} %}
      {%? (#PARAM:@f_inicio_desde!='') {% AND t0.f_inicio &gt;= {#PARAM:@f_inicio_desde} %} {% %} %}
      {%? (#PARAM:@f_fin_hasta!='') {% AND t0.f_fin &lt;= {#PARAM:@f_fin_hasta} %} {% %} %}
      {%? (#PARAM:@f_fin_desde!='') {% AND t0.f_fin &gt;= {#PARAM:@f_fin_desde} %} {% %} %}
      {%? (string(#PARAM:@c_proyecto)!='') {% AND CONTAIN(t0.c_proyecto,{#PARAM:@c_proyecto}) %} {% %} %}
      {%? (string(#PARAM:@d_proyecto)!='') {% AND CONTAIN(t0.d_proyecto,{#PARAM:@d_proyecto}) %} {% %} %}
			{%? (string(#PARAM:@oi_recurso)!='') {% AND t0.oi_recurso = {#PARAM:@oi_recurso} %} {% %} %}
			{%? (string(#PARAM:@oi_cliente)!='') {% AND t0.oi_cliente = {#PARAM:@oi_cliente} %} {% %} %}
      {%? (string(#PARAM:EST/C/@id)!='') {% AND CONTAIN({#PARAM:EST/C/@id},t0.c_estado) %} {%  %} %}
      {%? (string(#PARAM:TPROYS/C/@id)!='') {% AND t0.oi_tipo_proyecto IN ({%=string(#PARAM:TPROYS/C/@id) %}) %} {%  %} %}
      ORDER BY 
			oi_proyecto asc')/ROWS/ROW
				</qry:xquery>
				<qry:out>
					<qry:element name="ROW">
						<qry:attribute name="id" value="$r/@oi_proyecto"/>
					</qry:element>
				</qry:out>
			</qry:select>
		</qry:define>
		<qry:define declare="&lt;DATOS f_inicio_desde=&quot;&quot; f_inicio_hasta=&quot;&quot; f_fin_desde=&quot;&quot; f_fin_hasta=&quot;&quot; c_proyecto=&quot;&quot; d_proyecto=&quot;Proyecto de Prueba&quot; oi_recurso=&quot;&quot; oi_cliente=&quot;&quot; selected=&quot;&quot;&gt;&#13;&#10;&#9;&lt;ROWS /&gt;&#13;&#10;&#9;&lt;EST /&gt;&#13;&#10;&#9;&lt;TPROYS nmd-col=&quot;1&quot;&gt;&#13;&#10;&#9;&#9;&lt;C id=&quot;1&quot; /&gt;&#13;&#10;&#9;&#9;&lt;C id=&quot;3&quot; /&gt;&#13;&#10;&#9;&#9;&lt;C id=&quot;5&quot; /&gt;&#13;&#10;&#9;&#9;&lt;C id=&quot;2&quot; /&gt;&#13;&#10;&#9;&#9;&lt;C id=&quot;4&quot; /&gt;&#13;&#10;&#9;&#9;&lt;C id=&quot;6&quot; /&gt;&#13;&#10;&#9;&#9;&lt;C id=&quot;7&quot; /&gt;&#13;&#10;&#9;&lt;/TPROYS&gt;&#13;&#10;&lt;/DATOS&gt;" name="LIST">
			<qry:include name="NucleusProject.Base.Project.Proyectos.PROYECTO.INFO"/>
			<qry:include name="NucleusProject.Base.Project.TiposProyecto.TIPO_PROYECTO.INFO"/>
			<qry:include name="NucleusProject.Base.Project.Recursos.RECURSO.INFO"/>
			<qry:include name="NucleusProject.Base.Project.Clientes.CLIENTE.INFO"/>
			<qry:include name="NucleusProject.Base.Project.UnidadesTiempo.UNIDAD_TIEMPO.INFO"/>
			<qry:include name="NucleusRH.Base.Organizacion.Centros_de_Costos.CENTRO_COSTO.INFO"/>
			<qry:main doc="FILTER">
				<qry:element name="ROWS">
					<qry:insert-select doc-path="#FILTER:DATOS" name="sql1"/>
				</qry:element>
			</qry:main>
			<qry:select doc="PARAM" name="sql1">
				<qry:xquery>
					for $r in sql('
				SELECT 
					t0.oi_proyecto as oi_proyecto, 
					t0.c_proyecto as c_proyecto, 
					t0.d_proyecto as d_proyecto, 
					t0.f_inicio as f_inicio, 
					t0.f_fin as f_fin, 
					t0.f_inicio_est as f_inicio_est, 
					t0.f_fin_est as f_fin_est, 
					t0.f_acta as f_acta, 
					t0.f_aceptacion as f_aceptacion, 
					t0.e_estimado as e_estimado, 
					t0.c_estado as c_estado, 
					t0.c_enlace as c_enlace, 
					t0.d_sponsor as d_sponsor, 
					t0.e_prioridad as e_prioridad, 
					t0.c_proyecto as CODE, 
					t0.d_proyecto as TEXT, 
					t0.oi_proyecto_parent as oi_proyecto_parent, 
					t0.oi_tipo_proyecto as oi_tipo_proyecto, 
					t0.oi_recurso as oi_recurso, 
					t0.oi_cliente as oi_cliente, 
					t0.oi_unidad_tiempo as oi_unidad_tiempo, 
					t0.oi_centro_costo as oi_centro_costo 
					, put1.e_minutos
					, t0.c_nivel_compl as c_nivel_compl
				FROM 
					PRY01_PROYECTOS as t0
					, PRY03_UND_TIEMPO AS put1
				JOIN
					t0.oi_unidad_tiempo LEFT OUTER put1.oi_unidad_tiempo
				WHERE 1=1
		      {%? (#PARAM:@f_inicio_hasta!='') {% AND t0.f_inicio &lt;= {#PARAM:@f_inicio_hasta} %} {% %} %}
		      {%? (#PARAM:@f_inicio_desde!='') {% AND t0.f_inicio &gt;= {#PARAM:@f_inicio_desde} %} {% %} %}
		      {%? (#PARAM:@f_fin_hasta!='') {% AND t0.f_fin &lt;= {#PARAM:@f_fin_hasta} %} {% %} %}
		      {%? (#PARAM:@f_fin_desde!='') {% AND t0.f_fin &gt;= {#PARAM:@f_fin_desde} %} {% %} %}
		      {%? (string(#PARAM:@c_proyecto)!='') {% AND CONTAIN(t0.c_proyecto,{#PARAM:@c_proyecto}) %} {% %} %}
		      {%? (string(#PARAM:@d_proyecto)!='') {% AND CONTAIN(t0.d_proyecto,{#PARAM:@d_proyecto}) %} {% %} %}
					{%? (string(#PARAM:@oi_recurso)!='') {% AND t0.oi_recurso = {#PARAM:@oi_recurso} %} {% %} %}
					{%? (string(#PARAM:@oi_cliente)!='') {% AND t0.oi_cliente = {#PARAM:@oi_cliente} %} {% %} %}
		      {%? (string(#PARAM:EST/C/@id)!='') {% AND CONTAIN({#PARAM:EST/C/@id},t0.c_estado) %} {%  %} %}
		      {%? (string(#PARAM:TPROYS/C/@id)!='') {% AND t0.oi_tipo_proyecto IN ({%=string(#PARAM:TPROYS/C/@id) %}) %} {%  %} %}
				ORDER BY oi_proyecto asc')/ROWS/ROW
				</qry:xquery>
				<qry:out>
					<qry:element name="ROW">
						<qry:attribute name="policy" value="$r/@policy"/>
						<qry:attribute name="id" value="$r/@oi_proyecto"/>
						<qry:attribute name="oi_proyecto" value="$r/@oi_proyecto"/>
						<qry:if test="$r/@f_fin_est=''">
							<qry:then>
								<qry:attribute name="img" value="'./Listas/SB.gif'"/>
							</qry:then>
							<qry:else>
								<qry:if test="number(format-date(now(),'yyyymmdd'))&gt;number(format-date($r/@f_fin_est,'yyyymmdd'))">
									<qry:then>
										<qry:attribute name="img" value="'./Listas/SR.gif'"/>
									</qry:then>
									<qry:else>
										<qry:if test="(datetime($r/@f_fin_est)-now())&lt;=7">
											<qry:then>
												<qry:attribute name="img" value="'./Listas/SY.gif'"/>
											</qry:then>
											<qry:else>
												<qry:attribute name="img" value="'./Listas/SG.gif'"/>
											</qry:else>
										</qry:if>
									</qry:else>
								</qry:if>
							</qry:else>
						</qry:if>
						<qry:attribute name="c_proyecto" value="$r/@c_proyecto"/>
						<qry:attribute name="d_proyecto" value="$r/@d_proyecto"/>
						<qry:attribute name="f_inicio" value="$r/@f_inicio"/>
						<qry:attribute name="f_fin" value="$r/@f_fin"/>
						<qry:attribute name="f_inicio_est" value="$r/@f_inicio_est"/>
						<qry:attribute name="f_fin_est" value="$r/@f_fin_est"/>
						<qry:attribute name="f_acta" value="$r/@f_acta"/>
						<qry:attribute name="f_aceptacion" value="$r/@f_aceptacion"/>
						<qry:attribute name="e_estimado" value="$r/@e_estimado"/>
						<qry:attribute name="c_estado" value="$r/@c_estado"/>
						<qry:attribute name="c_enlace" value="$r/@c_enlace"/>
						<qry:attribute name="d_sponsor" value="$r/@d_sponsor"/>
						<qry:attribute name="e_prioridad" value="$r/@e_prioridad"/>
						<qry:attribute name="c_nivel_compl" value="$r/@c_nivel_compl"/>
						<qry:attribute name="CODE" value="$r/@CODE"/>
						<qry:attribute name="TEXT" value="$r/@TEXT"/>
						<qry:if test="$r/@oi_proyecto_parent!=''">
							<qry:then>
								<qry:element name="oi_proyecto_parent">
									<qry:attribute name="OI_FIND" value="$r/@oi_proyecto_parent"/>
									<qry:insert-select name="NucleusProject.Base.Project.Proyectos.PROYECTO.QUERY" doc-path="."/>
								</qry:element>
								<qry:attribute name="oi_proyecto_parent" value="'['+oi_proyecto_parent/ROW/@COD+'] '+oi_proyecto_parent/ROW/@DES"/>
							</qry:then>
						</qry:if>
						<qry:if test="$r/@oi_tipo_proyecto!=''">
							<qry:then>
								<qry:element name="oi_tipo_proyecto">
									<qry:attribute name="OI_FIND" value="$r/@oi_tipo_proyecto"/>
									<qry:insert-select name="NucleusProject.Base.Project.TiposProyecto.TIPO_PROYECTO.QUERY" doc-path="."/>
								</qry:element>
								<qry:attribute name="oi_tipo_proyecto" value="'['+oi_tipo_proyecto/ROW/@COD+'] '+oi_tipo_proyecto/ROW/@DES"/>
							</qry:then>
						</qry:if>
						<qry:if test="$r/@oi_recurso!=''">
							<qry:then>
								<qry:element name="oi_recurso">
									<qry:attribute name="OI_FIND" value="$r/@oi_recurso"/>
									<qry:insert-select name="NucleusProject.Base.Project.Recursos.RECURSO.QUERY" doc-path="."/>
								</qry:element>
								<qry:attribute name="oi_recurso" value="'['+oi_recurso/ROW/@COD+'] '+oi_recurso/ROW/@DES"/>
							</qry:then>
						</qry:if>
						<qry:if test="$r/@oi_cliente!=''">
							<qry:then>
								<qry:element name="oi_cliente">
									<qry:attribute name="OI_FIND" value="$r/@oi_cliente"/>
									<qry:insert-select name="NucleusProject.Base.Project.Clientes.CLIENTE.QUERY" doc-path="."/>
								</qry:element>
								<qry:attribute name="oi_cliente" value="'['+oi_cliente/ROW/@COD+'] '+oi_cliente/ROW/@DES"/>
							</qry:then>
						</qry:if>
						<qry:if test="$r/@oi_unidad_tiempo!=''">
							<qry:then>
								<qry:element name="oi_unidad_tiempo">
									<qry:attribute name="OI_FIND" value="$r/@oi_unidad_tiempo"/>
									<qry:insert-select name="NucleusProject.Base.Project.UnidadesTiempo.UNIDAD_TIEMPO.QUERY" doc-path="."/>
								</qry:element>
								<qry:attribute name="oi_unidad_tiempo" value="'['+oi_unidad_tiempo/ROW/@COD+'] '+oi_unidad_tiempo/ROW/@DES"/>
							</qry:then>
						</qry:if>
						<qry:if test="$r/@oi_centro_costo!=''">
							<qry:then>
								<qry:element name="oi_centro_costo">
									<qry:attribute name="OI_FIND" value="$r/@oi_centro_costo"/>
									<qry:insert-select name="NucleusRH.Base.Organizacion.Centros_de_Costos.CENTRO_COSTO.QUERY" doc-path="."/>
								</qry:element>
								<qry:attribute name="oi_centro_costo" value="'['+oi_centro_costo/ROW/@COD+'] '+oi_centro_costo/ROW/@DES"/>
							</qry:then>
						</qry:if>
						<qry:attribute name="e_estimado" value="($r/@e_estimado * $r/@e_minutos) div 60"/>
						<qry:attribute name="e_imputado" value="0"/>
						<qry:insert-select name="qry_imputado" doc-path="."/>
						<qry:insert-select name="qry_imputar_hijos" doc-path="."/>
					</qry:element>
				</qry:out>
			</qry:select>
			<qry:select name="qry_imputado" doc="PARAM">
				<qry:xquery>
					for $r in SQL('          
SELECT 
	pt2.e_duracion
	, put1.e_minutos
FROM 
	PRY02_TAREAS as pt
	, PRY04_TRABAJOS as pt2
	, PRY03_UND_TIEMPO AS put1
JOIN
	pt2.oi_tarea INNER pt.oi_tarea
	, put1.oi_unidad_tiempo INNER pt2.oi_unidad_tiempo 
WHERE 
	pt.oi_proyecto = {#PARAM:@oi_proyecto} 
			')/ROWS/ROW
				</qry:xquery>
				<qry:out>
					<qry:attribute name="e_imputado" value="number(@e_imputado) + ($r/@e_duracion * $r/@e_minutos) div 60"/>
				</qry:out>
			</qry:select>
			<qry:select name="qry_imputar_hijos" doc="PARAM">
				<qry:xquery>
					for $r in SQL('
			SELECT p.oi_proyecto
			
			FROM
			PRY01_PROYECTOS as pp,
			PRY01_PROYECTOS as p
			
			JOIN
			pp.oi_proyecto INNER p.oi_proyecto_parent
			
			WHERE
			pp.oi_proyecto = {#PARAM:@oi_proyecto}
			
			')/ROWS/ROW
				</qry:xquery>
				<qry:out>
					<qry:attribute name="oi_proyecto" value="$r/@oi_proyecto"/>
					<qry:if test="$r/@oi_proyecto!=''">
						<qry:then>
							<qry:insert-select name="qry_imputado" doc-path="."/>
							<qry:insert-select name="qry_imputar_hijos" doc-path="."/>
						</qry:then>
					</qry:if>
				</qry:out>
			</qry:select>
		</qry:define>
		<doc:define name="EST">
			<ROWS>
				<ROW id="I" des="INICIADO"/>
				<ROW id="T" des="TRABAJANDO"/>
				<ROW id="F" des="FINALIZADO"/>
				<ROW id="A" des="ANULADO"/>
				<ROW id="L" des="BLOQUEADO"/>
			</ROWS>
		</doc:define>
		<qry:define declare="&lt;PRESUPUESTO nmd-col=&quot;1&quot;&gt;&#13;&#10;&#9;&lt;PRESUPUESTO descr=&quot;Nuevo&quot; nmd-status=&quot;~i,&quot; id=&quot;~94516447508A-945D19031EC8-000000000169&quot; c_presupuesto=&quot;123&quot; d_presupuesto=&quot;123&quot; f_presupuesto=&quot;20121120&quot;&gt;&#13;&#10;&#9;&#9;&lt;oi_doc_digital nmd-agr=&quot;1&quot; value=&quot;108&quot; nmd-status=&quot;~u,value,&quot; /&gt;&#13;&#10;&#9;&lt;/PRESUPUESTO&gt;&#13;&#10;&lt;/PRESUPUESTO&gt;" name="LIST:NucleusProject.Base.Project.Proyectos.PRESUPUESTO">
			<qry:main doc="PARAM" maxdeep="2">
				<qry:element name="ROWS">
					<qry:insert-select doc-path="#PARAM:./PRESUPUESTO[substring_before(@nmd-status,',')!='~d' and substring_before(@nmd-status,',')!='~x']" name="sql1"/>
				</qry:element>
			</qry:main>
			<qry:select doc="PARAM" name="sql1">
				<qry:xquery>
					for $r in #PARAM:
				</qry:xquery>
				<qry:out>
					<qry:element name="ROW">
						<qry:attribute name="id" value="$r/@id"/>
						<qry:attribute name="c_presupuesto" value="$r/@c_presupuesto"/>
						<qry:attribute name="d_presupuesto" value="$r/@d_presupuesto"/>
						<qry:attribute name="f_presupuesto" value="$r/@f_presupuesto"/>
						<qry:attribute name="CODE" value="$r/@CODE"/>
						<qry:attribute name="TEXT" value="$r/@TEXT"/>
						<qry:attribute name="oi_doc_digital" value="#PARAM:oi_doc_digital/@value"/>
						<qry:insert-select doc-path="." name="sql2"/>
					</qry:element>
				</qry:out>
			</qry:select>
			<qry:select doc="PARAM" name="sql2">
				<qry:xquery>
					for $r in sql('
			SELECT
				PRY15.o_doc_digital				 
			FROM
				PRY15_DOCUM_DIG as PRY15
			WHERE
				PRY15.oi_doc_digital = {#PARAM:@oi_doc_digital}
			')/ROWS/ROW
				</qry:xquery>
				<qry:out>
					<qry:attribute name="o_doc_digital" value="$r/@o_doc_digital"/>
				</qry:out>
			</qry:select>
		</qry:define>
		<doc:define name="DOCPROYECTO">
			<ROW/>
		</doc:define>
		<qry:define name="PARAMETROS">
			<qry:main doc="SOURCE">
				<qry:element name="ROWS">
					<qry:insert-select name="SQL1"/>
				</qry:element>
			</qry:main>
			<qry:select name="SQL1" doc="PARAM">
				<qry:xquery>
					for $r in SQL('
SELECT
	P.oi_parametro,
	P.c_parametro,
	P.d_valor
FROM
	ORG26_PARAMETROS as P
WHERE
	P.c_modulo=\'PRY\'
			')/ROWS/ROW
				</qry:xquery>
				<qry:out>
					<qry:element name="ROW">
						<qry:attribute name="id" value="$r/@oi_parametro"/>
						<qry:attribute name="code" value="$r/@c_parametro"/>
						<qry:attribute name="value" value="$r/@d_valor"/>
						<qry:attribute name="next" value="iif($r/@c_parametro='ProxCod',number(@value)+1,'')"/>
					</qry:element>
				</qry:out>
			</qry:select>
		</qry:define>
		<doc:define name="PARAMETROS"/>
		<doc:define class="NucleusRH.Base.Organizacion.Parametros.PARAMETRO" name="OBJ_PARAMETRO"/>
		<qry:define name="TIPOS_PROYECTOS">
			<qry:main doc="SOURCE">
				<qry:element name="ROWS">
					<qry:insert-select name="qry_tipos_proyectos"/>
				</qry:element>
			</qry:main>
			<qry:select name="qry_tipos_proyectos">
				<qry:xquery>
					for $r in SQL('
SELECT
	PRY09.oi_tipo_proyecto AS ID
	, PRY09.c_tipo_proyecto AS COD
	, PRY09.d_tipo_proyecto AS DES
FROM
	PRY09_TIPOS_PROYECTO AS PRY09
			')/ROWS/ROW
				</qry:xquery>
				<qry:out>
					<qry:element name="ROW">
						<qry:attribute name="id" value="$r/@ID"/>
						<qry:attribute name="cod" value="$r/@COD"/>
						<qry:attribute name="des" value="$r/@DES"/>
					</qry:element>
				</qry:out>
			</qry:select>
		</qry:define>
		<doc:define name="TPROYS">
			<ROWS/>
		</doc:define>
		<doc:define name="RESULT"/>
		<doc:define name="PROY">
			<FILTER ocultarReporte=""/>
		</doc:define>
		<doc:define class="NucleusProject.Base.Project.Proyectos.PROYECTO" name="DDO_PROYECTO"/>
		<doc:define name="IDPROYECTO"/>
		<doc:define class="NucleusProject.Base.Project.Proyectos.AVANCE" name="DDO_AVANCE"/>
		<qry:define name="FindResource">
			<qry:main doc="PARAM">
				<qry:element name="ROW">
					<qry:insert-select name="SQL1"/>
				</qry:element>
			</qry:main>
			<qry:select doc="PARAM" name="SQL1">
				<qry:xquery>
					for $r in SQL('
			SELECT 
				P.oi_personal, R.oi_recurso
			FROM
				PER01_PERSONAL as P,
				PRY05_RECURSOS as R
			JOIN
				P.oi_personal inner R.oi_personal
			WHERE               
				P.oi_usuario_sistema = {#PROXY:@ETTY}
		')/ROWS/ROW
				</qry:xquery>
				<qry:out>
					<qry:attribute name="id_per" value="$r/@oi_personal"/>
					<qry:attribute name="id_rec" value="$r/@oi_recurso"/>
				</qry:out>
			</qry:select>
		</qry:define>
		<doc:define name="recurso"/>
	</flow:declare>
	<flow:main doc="PARAMETERS">
		<flow:action name="initialize-new">
			<flow:open-form doc-path="#FILTERDATA:" mode="FILTER" form-class="NucleusProject.Base.Project.Proyectos.PROYECTO.filter.form"/>
		</flow:action>
		<!--flow:action name="sincronizar">
		<flow:log text-path="#PARAMETERS:" text="jprPARAMETERS"/>
		<flow:open-form doc-path="#PARAMETERS:" mode="EDIT" form-class="NucleusProject.Base.Project.Proyectos.PROYECTO.sync.form"/>
	</flow:action-->
	</flow:main>
	<flow:group Name="PROYECTO">
		<flow:form extends="NucleusProject.Base.Project.Proyectos.PROYECTO.filter.autoform:FILTER" parent-doc="PARENTSOURCE" doc="SOURCE" name="NucleusProject.Base.Project.Proyectos.PROYECTO.filter.form:FILTER" form-class="NucleusProject.Base.Project.Proyectos.PROYECTO.filter.form" mode="FILTER">
			<flow:action name="on-show">
				<doc:load-qry output-doc="TPROYS" qry="TIPOS_PROYECTOS"/>
				<flow:log text="jprTPROYS" text-path="#TPROYS:"/>
				<flow:attach-doc doc-path="#TPROYS:" attach-id="TPROYS"/>
				<flow:attach-doc doc-path="#EST:" attach-id="EST"/>
				<flow:log text="jprSOURCE" text-path="#SOURCE:"/>
				<flow:call-action action="inits-DDO"/>
			</flow:action>
			<flow:action name="inits-DDO">
				<doc:new-object doc="DDO" class="NucleusProject.Base.Project.Proyectos.PROYECTO"/>
				<doc:new-object doc="NEWDDOROOT" class="NucleusProject.Base.Project.Proyectos.PROYECTO"/>
			</flow:action>
			<flow:action name="new-DDO">
				<doc:new-object doc="NEWDDOROOT" class="NucleusProject.Base.Project.Proyectos.PROYECTO"/>
			</flow:action>
			<flow:action name="open-flow-SHOW">
				<flow:open-form iter-index="#QRY:ROW/@id" parent-doc-path="#QRY:" doc-path="#DDO:" mode="EDIT" form-class="NucleusProject.Base.Project.Proyectos.PROYECTO.noreg.form"/>
			</flow:action>
			<flow:action name="open-flow-ADD">
				<flow:call-action action="ADD"/>
				<!--flow:open-form doc-path="#NEWDDOROOT:" mode="NEW" form-class="NucleusProject.Base.Project.Proyectos.PROYECTO.autoform"/-->
			</flow:action>
			<flow:action name="open-flow-LIST">
				<flow:open-form iter-index="#QRY:ROW/@id" parent-doc-path="#QRY:" doc-path="#DDO:" mode="LIST" form-class="NucleusProject.Base.Project.Proyectos.PROYECTO.form"/>
			</flow:action>
			<flow:action name="Load-FILTER">
				<flow:load-user-data doc="FILTERDATA" name="FILTER-NucleusProject.Base.Project.Proyectos.PROYECTO"/>
			</flow:action>
			<flow:action name="Save-FILTER">
				<flow:save-user-data doc-path="#FILTERDATA:" name="FILTER-NucleusProject.Base.Project.Proyectos.PROYECTO"/>
			</flow:action>
			<flow:action name="ADD">
				<doc:load-qry output-doc="TEMPLATE" qry="Templates"/>
				<doc:load-qry output-doc="PARAMETROS" qry="PARAMETROS"/>
				<doc:assign-value from-path="#PARAMETERS:" to-doc="PARAMIN"/>
				<doc:new-object doc="DDO" class="NucleusProject.Base.Project.Proyectos.PROYECTO"/>
				<doc:new-object doc="NEWDDOROOT" class="NucleusProject.Base.Project.Proyectos.PROYECTO"/>
				<doc:set-attribute from-attr-path="#PARAMETERS:@id" to-attr-path="#NEWDDOROOT:oi_proyecto_parent/@value"/>
				<doc:set-attribute from-value="I" to-attr-path="#NEWDDOROOT:@c_estado"/>
				<doc:set-attribute from-attr-path="#PARAMETROS:ROW[@code='ProxCod']/@value" to-attr-path="#NEWDDOROOT:@c_proyecto"/>
				<flow:log text="facuNEWDDO" text-path="#NEWDDOROOT:"/>
				<flow:open-form doc-path="#NEWDDOROOT:" mode="NEW" form-class="NucleusProject.Base.Project.Proyectos.MAIN-TEMP.form"/>
			</flow:action>
			<flow:action name="FILTER">
				<flow:log text-path="#FILTERDATA:" text="chueka-filter"/>
				<doc:load-qry output-doc="QRY" qry="FILTER" input-doc-path="#FILTERDATA:"/>
				<flow:log text-path="#QRY:" text="chueka-QRY"/>
				<flow:call-action action="Save-FILTER"/>
				<flow:call-action action="open-flow-SHOW"/>
			</flow:action>
			<flow:action name="After-Change-NEW"/>
		</flow:form>
		<flow:form extends="NucleusProject.Base.Project.Proyectos.PROYECTO.noreg.autoform:EDIT" parent-doc="PARENTSOURCE" doc="SOURCE" name="NucleusProject.Base.Project.Proyectos.PROYECTO.noreg.form:EDIT" form-class="NucleusProject.Base.Project.Proyectos.PROYECTO.noreg.form" mode="EDIT">
			<flow:action name="new-DDO">
				<doc:new-object doc="NEWDDOROOT" class="NucleusProject.Base.Project.Proyectos.PROYECTO"/>
			</flow:action>
			<flow:action name="load-DDO">
				<doc:load-object id-path="#QRY:ROW[1]/@id" class="NucleusProject.Base.Project.Proyectos.PROYECTO" doc="DDO"/>
			</flow:action>
			<flow:action name="open-flow-SHOW">
				<!--doc:load-qry output-doc="RS_PRESUPUESTO" qry="QRY_PRESUPUESTO" input-doc-path="#DDO:"/>
	<flow:log text-path="#RS_PRESUPUESTO:" text="logRS"/>
	<doc:load-object load-all="1" load-child="0" doc="DDO_PRESUPUESTO" id-path="#RS_PRESUPUESTO:@id" class="NucleusProject.Base.Project.Proyectos.PRESUPUESTO"/>
	<flow:log text-path="#DDO_PRESUPUESTO:" text="logDDOP"/-->
				<flow:open-form iter-index="#QRY:ROW/@id" parent-doc-path="#QRY:" doc-path="#DDO:" mode="SHOW" form-class="NucleusProject.Base.Project.Proyectos.PROYECTO.form"/>
			</flow:action>
			<flow:action name="open-flow-ADD">
				<flow:open-form doc-path="#NEWDDOROOT:" mode="NEW" form-class="NucleusProject.Base.Project.Proyectos.PROYECTO.form"/>
			</flow:action>
			<flow:action name="open-flow-LIST">
				<flow:open-form iter-index="#QRY_LIST:ROW/@id" parent-doc-path="#QRY_LIST:" doc-path="#DDO:" mode="LIST" form-class="NucleusProject.Base.Project.Proyectos.PROYECTO.form"/>
			</flow:action>
			<flow:action name="on-move-iterator">
				<flow:call-action action="load-DDO"/>
				<flow:call-action action="goto-list"/>
			</flow:action>
			<flow:action name="goto-list">
				<flow:log text-path="#FILTERDATA:" text="chueka-filter"/>
				<doc:load-qry output-doc="QRY_LIST" qry="LIST" input-doc-path="#FILTERDATA:"/>
				<flow:log text="chueka-qrylist" text-path="#QRY_LIST:"/>
				<flow:call-action action="open-flow-LIST"/>
			</flow:action>
			<flow:action name="After-Change-NEW">
				<flow:close-form next-action="After-Change-NEW"/>
			</flow:action>
		</flow:form>
		<flow:form extends="NucleusProject.Base.Project.Proyectos.PROYECTO.autoform:SHOW" parent-doc="PARENTSOURCE" doc="SOURCE" name="NucleusProject.Base.Project.Proyectos.PROYECTO.form:SHOW" form-class="NucleusProject.Base.Project.Proyectos.PROYECTO.form" mode="SHOW">
			<flow:action name="new-DDO">
				<doc:new-object doc="NEWDDOROOT" class="NucleusProject.Base.Project.Proyectos.PROYECTO"/>
			</flow:action>
			<flow:action name="load-DDO">
				<doc:load-object id-path="#iter-cursor:@value" class="NucleusProject.Base.Project.Proyectos.PROYECTO" doc="DDO"/>
			</flow:action>
			<flow:action name="save-DDO">
				<doc:save-object class="NucleusProject.Base.Project.Proyectos.PROYECTO" doc="DDO"/>
			</flow:action>
			<flow:action name="delete-DDO">
				<doc:delete-object doc-path="#DDO:" class="NucleusProject.Base.Project.Proyectos.PROYECTO" doc="DDO"/>
				<doc:save-object class="NucleusProject.Base.Project.Proyectos.PROYECTO" doc="DDO"/>
			</flow:action>
			<flow:action name="open-flow-EDIT">
				<flow:open-form doc-path="#DDO:" mode="EDIT" form-class="NucleusProject.Base.Project.Proyectos.PROYECTO.form"/>
			</flow:action>
			<flow:action name="open-flow-ADD">
				<flow:open-form doc-path="#NEWDDOROOT:" mode="NEW" form-class="NucleusProject.Base.Project.Proyectos.MAIN-TEMP.form"/>
			</flow:action>
			<flow:action name="CALL:MODULO_INC">
				<flow:open-form iter-index="#DDO:MODULOS/MODULO_INC/@id" parent-doc-path="#DDO:MODULOS" doc-path="#DDO:MODULOS" mode="SHOW" form-class="NucleusProject.Base.Project.Proyectos.MODULO_INC.noreg.autoform"/>
			</flow:action>
			<flow:action name="CALL:PRESUPUESTO">
				<flow:open-form iter-index="#DDO:PRESUPUESTO/PRESUPUESTO/@id" parent-doc-path="#DDO:PRESUPUESTO" doc-path="#DDO:PRESUPUESTO" mode="SHOW" form-class="NucleusProject.Base.Project.Proyectos.PRESUPUESTO.noreg.autoform"/>
			</flow:action>
			<flow:action name="CALL:SOLICITUD_ASOC">
				<flow:open-form iter-index="#DDO:SOLICITUD/SOLICITUD_ASOC/@id" parent-doc-path="#DDO:SOLICITUD" doc-path="#DDO:SOLICITUD" mode="SHOW" form-class="NucleusProject.Base.Project.Proyectos.SOLICITUD_ASOC.noreg.autoform"/>
			</flow:action>
			<flow:action name="CALL:REQUERIMIENTO">
				<flow:open-form iter-index="#DDO:REQUERIMIENTO/REQUERIMIENTO/@id" parent-doc-path="#DDO:REQUERIMIENTO" doc-path="#DDO:REQUERIMIENTO" mode="SHOW" form-class="NucleusProject.Base.Project.Proyectos.REQUERIMIENTO.noreg.autoform"/>
			</flow:action>
			<flow:action name="CALL:AVANCE">
				<flow:call-action action="load-DDO"/>
				<flow:open-form iter-index="#DDO:AVANCES/AVANCE/@id" parent-doc-path="#DDO:AVANCES" doc-path="#DDO:AVANCES" mode="SHOW" form-class="NucleusProject.Base.Project.Proyectos.AVANCE.noreg.autoform"/>
			</flow:action>
			<flow:action name="on-show">
				<flow:log text-path="#SOURCE:" text="chueka-show"/>
				<doc:set-attribute from-attr-path="#SOURCE:@id" to-attr-path="#DOCPROYECTO:@id"/>
			</flow:action>
			<flow:action name="ADD">
				<flow:call-action action="pre-ADD"/>
				<flow:call-action action="open-flow-ADD"/>
			</flow:action>
			<flow:action name="pre-ADD">
				<doc:load-qry output-doc="TEMPLATE" qry="Templates"/>
				<doc:load-qry output-doc="PARAMETROS" qry="PARAMETROS"/>
				<doc:assign-value from-path="#PARAMETERS:" to-doc="PARAMIN"/>
				<doc:new-object doc="DDO" class="NucleusProject.Base.Project.Proyectos.PROYECTO"/>
				<doc:new-object doc="NEWDDOROOT" class="NucleusProject.Base.Project.Proyectos.PROYECTO"/>
				<doc:set-attribute from-attr-path="#PARAMETERS:@id" to-attr-path="#NEWDDOROOT:oi_proyecto_parent/@value"/>
				<doc:set-attribute from-value="I" to-attr-path="#NEWDDOROOT:@c_estado"/>
				<doc:set-attribute from-attr-path="#PARAMETROS:ROW[@code='ProxCod']/@value" to-attr-path="#NEWDDOROOT:@c_proyecto"/>
			</flow:action>
			<flow:action name="ANULE">
				<doc:new-object doc="DDO" class="NucleusProject.Base.Project.Proyectos.PROYECTO"/>
				<doc:load-object id-path="#SOURCE:@id" doc="DDO" class="NucleusProject.Base.Project.Proyectos.PROYECTO"/>
				<flow:exec-method this-doc="DDO" method="CambiarEstado">
					<flow:param value="A" type="Nomad.NSystem.String" mode="in" name="estado"/>
				</flow:exec-method>
				<flow:call-action action="LIST"/>
			</flow:action>
			<flow:action name="FINALIZE">
				<doc:set-attribute from-attr-path="#SOURCE:@id" to-attr-path="#PROY:@id"/>
				<doc:new-object doc="DDO" class="NucleusProject.Base.Project.Proyectos.PROYECTO"/>
				<doc:load-object id-path="#PROY:@id" doc="DDO" class="NucleusProject.Base.Project.Proyectos.PROYECTO"/>
				<flow:call-action else="open-flow-FINALIZAR" action="open-flow-FINALIZARMAIL" if="#DDO:oi_tipo_proyecto/@value" eq="1"/>
			</flow:action>
			<flow:action name="ADDINF">
				<doc:load-object id-path="#SOURCE:@id" class="NucleusProject.Base.Project.Proyectos.PROYECTO" doc="DDO_PROYECTO" load-child="0" load-all="1"/>
				<doc:set-attribute from-attr-path="#DDO_PROYECTO:@id" to-attr-path="#IDPROYECTO:@parent"/>
				<doc:new-object class="NucleusProject.Base.Project.Proyectos.AVANCE" doc="DDO_AVANCE"/>
				<doc:load-qry output-doc="recurso" qry="FindResource"/>
				<doc:set-attribute to-attr-path="#DDO_AVANCE:oi_recurso/@value" from-attr-path="#recurso:@id_rec"/>
				<flow:open-form doc-path="#DDO_AVANCE:" form-class="NucleusProject.Base.Project.Proyectos.AVANCE.form" mode="NEW"/>
			</flow:action>
			<flow:action name="After-Change">
				<doc:load-qry output-doc="QRY" qry="FILTER" input-doc-path="#FILTERDATA:"/>
				<doc:iter-refresh/>
				<flow:close-form next-action="open-flow-SHOW"/>
			</flow:action>
			<flow:action name="open-flow-FINALIZAR">
				<flow:open-form doc-path="#PROY:" mode="FINALIZE" form-class="NucleusProject.Base.Project.Proyectos.CAMBIO_EST.form"/>
			</flow:action>