<flow:flow xmlns:flow="nomad_engine.flow" xmlns:doc="nomad_engine.doc" name="NucleusProject.Base.Project.Proyectos.PROYECTO.guia" default_action="HELP">
	<flow:declare>
		<doc:define name="PARAMIN"/>
	</flow:declare>
	<flow:info label="Flow guia para NucleusProject.Base.Project.Recursos.RECURSO"/>
	<flow:main doc="SOURCE">
		<flow:action name="HELP">
			<doc:assign-value from-path="#SOURCE:" to-doc="PARAMIN"/>
			<flow:open-form form-class="NucleusProject.Base.Project.Proyectos.PROYECTO.guia.form" parent-doc-path="#SOURCE:" doc-path="#SOURCE:" mode="SHOW"/>
		</flow:action>
		<flow:action name="HELP_NEW">
			<doc:assign-value from-path="#SOURCE:" to-doc="PARAMIN"/>
			<flow:log text="chueka-source-guia" text-path="#SOURCE:"/>
			<flow:open-form form-class="NucleusProject.Base.Project.Proyectos.PROYECTO.guia.form_new" mode="SHOW_NEW" parent-doc-path="#SOURCE:" doc-path="#SOURCE:"/>
		</flow:action>
	</flow:main>
	<flow:form form-class="NucleusProject.Base.Project.Proyectos.PROYECTO.guia.form" name="NucleusProject.Base.Project.Proyectos.PROYECTO.guia.form:SHOW" parent-doc="INDOC" doc="SOURCE" mode="SHOW">
		<flow:action name="CANCEL">
			<flow:exit-flow return-path="#PARAMIN:"/>
		</flow:action>
		<flow:action name="ACCEPT">
			<flow:exit-flow return-path="#SOURCE:"/>
		</flow:action>
	</flow:form>
	<flow:form form-class="NucleusProject.Base.Project.Proyectos.PROYECTO.guia.form_new" name="NucleusProject.Base.Project.Proyectos.PROYECTO.guia.form_new:SHOW_NEW" mode="SHOW_NEW" parent-doc="INDOC" doc="SOURCE">
		<flow:action name="CANCEL">
			<flow:exit-flow return-path="#PARAMIN:"/>
		</flow:action>
		<flow:action name="ACCEPT">
			<flow:exit-flow return-path="#SOURCE:"/>
		</flow:action>
	</flow:form>
</flow:flow>
