<flow:flow xmlns:flow="nomad_engine.flow" xmlns:doc="nomad_engine.doc" name="NucleusRH.Base.SeleccionDePostulantes.Reportes.PlanillaCv" extends="Nomad.base.HTML_XLS.flow">
	<flow:info label="Flow para NucleusRH.Base.SeleccionDePostulantes.Reportes.PlanillaCv"/>
	<flow:declare>
		<doc:define name="FILTERDATA">
			<PARAMETERS/>
		</doc:define>
	</flow:declare>
	<flow:main doc="SOURCE">
		<flow:action name="initialize">
			<flow:open-form doc-path="#FILTERDATA:" mode="FILTER" form-class="NucleusRH.Base.SeleccionDePostulantes.Reportes.PlanillaCv.PlanillaCv.filter.form"/>
		</flow:action>
	</flow:main>
	<flow:form form-class="NucleusRH.Base.SeleccionDePostulantes.Reportes.PlanillaCv.PlanillaCv.filter.form" name="NucleusRH.Base.SeleccionDePostulantes.Reportes.PlanillaCv.PlanillaCv.filter.form:FILTER" doc="PARAMETERS" mode="FILTER">
		<flow:action name="on-open">
			<flow:call-action action="Load-FILTER"/>
		</flow:action>
		<flow:action name="BACK">
			<flow:close-form/>
		</flow:action>
		<flow:action name="Save-FILTER">
			<flow:save-user-data name="FILTER-NucleusRH.Base.SeleccionDePostulantes.Reportes.PlanillaCv" doc-path="#FILTERDATA:"/>
		</flow:action>
		<flow:action name="Load-FILTER">
			<flow:load-user-data name="FILTER-NucleusRH.Base.SeleccionDePostulantes.Reportes.PlanillaCv" doc="FILTERDATA"/>
		</flow:action>
		<flow:action name="ACCEPT">
			<flow:call-action action="Save-FILTER"/>
			<flow:exec-method method="ExecReportHTML" out-attr-path="#BATCHDOC:@batch-id" priority="9" class="Nomad.Base.Report.GeneralReport.REPORT">
				<flow:param value="NucleusRH.Base.SeleccionDePostulantes.PlanillaCv.rpt" type="Nomad.NSystem.String" mode="in" name="ReportName"/>
				<flow:param doc-path="#FILTERDATA:" name="paramIN" type="Nomad.NSystem.Proxy.NomadXML" mode="in"/>
			</flow:exec-method>
			<flow:log text-path="#FILTERDATA:" text="PEPE"/>
			<doc:set-attribute from-value="002 - Planilla de CV" to-attr-path="#BATCHDOC:@title"/>
			<flow:open-form form-class="Nomad.base.HTML_XLS.form" parent-doc-path="#SOURCE:" mode="SHOW" doc-path="#BATCHDOC:"/>
		</flow:action>
	</flow:form>
</flow:flow>
