<flow:flow extends="NucleusRH.Base.Evaluacion.Eventos.EVENTO.guia.autoflow" xmlns:doc="nomad_engine.form" xmlns:qry="nomad_engine.form" xmlns:flow="nomad_engine.form" name="NucleusRH.Base.Evaluacion.Eventos.EVENTO.guia">
	<flow:main doc="SOURCE">
		<flow:action name="OPEN-GUIA">
			<flow:open-form parent-doc-path="#SOURCE:" doc-path="#RS:" mode="SHOW" form-class="NucleusRH.Base.Evaluacion.Eventos.EVENTO.guia.form"/>
		</flow:action>
	</flow:main>
	<flow:form extends="NucleusRH.Base.Evaluacion.Eventos.EVENTO.guia.autoform:SHOW" parent-doc="INVAL" doc="SOURCE" mode="SHOW" name="NucleusRH.Base.Evaluacion.Eventos.EVENTO.guia.form:SHOW" form-class="NucleusRH.Base.Evaluacion.Eventos.EVENTO.guia.form"/>
</flow:flow>
