<flow:flow xmlns:flow="nomad_engine.flow" xmlns:doc="nomad_engine.doc" default_action="LIST" name="NucleusRH.Base.Control_Contratistas.Vehiculos.VEHICULO.MAIN.STD.flow">
	<flow:info label="NucleusRH.Base.Control_Contratistas.Vehiculos.VEHICULO.MAIN.STD.autoflow"/>
	<flow:declare>
		<doc:define name="DATA"/>
		<doc:define name="DDO"/>
		<doc:define name="PARENT"/>
		<doc:define name="SELECT">
			<DATA id=""/>
		</doc:define>
	</flow:declare>
	<flow:main doc="SOURCE">
		<flow:action name="LIST">
			<doc:set-attribute from-attr-path="#SOURCE:@PARENT" to-attr-path="#SELECT:@PARENT"/>
			<flow:open-form mode="LIST" parent-doc-path="#SOURCE:" doc-path="#SELECT:" form-class="NucleusRH.Base.Control_Contratistas.Vehiculos.VEHICULO.MAIN.STD_LIST.autoform"/>
		</flow:action>
		<flow:action name="SELECT">
			<doc:set-attribute from-attr-path="#SOURCE:@PARENT" to-attr-path="#SELECT:@PARENT"/>
			<flow:open-form mode="SELECT" parent-doc-path="#SOURCE:" doc-path="#SELECT:" form-class="NucleusRH.Base.Control_Contratistas.Vehiculos.VEHICULO.MAIN.STD_LIST.autoform"/>
		</flow:action>
		<flow:action name="SHOW">
			<doc:set-attribute from-attr-path="#SOURCE:@ID" to-attr-path="#SELECT:@ID"/>
			<doc:set-attribute from-attr-path="#SOURCE:@PARENT" to-attr-path="#SELECT:@PARENT"/>
			<flow:call-action action="CALL-FROM-LIST" if="#SELECT:@ID" eq=""/>
			<flow:open-form mode="SHOW" parent-doc-path="#SOURCE:" doc-path="#SELECT:" form-class="NucleusRH.Base.Control_Contratistas.Vehiculos.VEHICULO.MAIN.STD_REG.autoform"/>
		</flow:action>
		<flow:action name="EDIT">
			<doc:set-attribute from-attr-path="#SOURCE:@ID" to-attr-path="#SELECT:@ID"/>
			<doc:set-attribute from-attr-path="#SOURCE:@PARENT" to-attr-path="#SELECT:@PARENT"/>
			<flow:call-action action="CALL-FROM-LIST" if="#SELECT:@ID" eq=""/>
			<flow:open-form mode="EDIT" parent-doc-path="#SOURCE:" doc-path="#SELECT:" form-class="NucleusRH.Base.Control_Contratistas.Vehiculos.VEHICULO.MAIN.STD_REG.autoform"/>
		</flow:action>
		<flow:action name="ADD">
			<doc:set-attribute from-attr-path="#SOURCE:@PARENT" to-attr-path="#SELECT:@PARENT"/>
			<flow:open-form mode="NEW" parent-doc-path="#SELECT:" doc-path="#SELECT:" form-class="NucleusRH.Base.Control_Contratistas.Vehiculos.VEHICULO.MAIN.STD_REG.autoform"/>
		</flow:action>
		<flow:action name="DEL">
			<doc:set-attribute from-attr-path="#SOURCE:@ID" to-attr-path="#SELECT:@ID"/>
			<doc:set-attribute from-attr-path="#SOURCE:@PARENT" to-attr-path="#SELECT:@PARENT"/>
			<flow:call-action action="CALL-FROM-LIST" if="#SELECT:@ID" eq=""/>
			<doc:new-object doc="DDO" class="NucleusRH.Base.Control_Contratistas.Vehiculos.VEHICULO"/>
			<doc:load-object id-path="#SOURCE:@ID" doc="DDO" load-child="1" load-all="1" class="NucleusRH.Base.Control_Contratistas.Vehiculos.VEHICULO"/>
			<doc:delete-object doc-path="#DDO:"/>
			<doc:save-object doc="DDO" class="NucleusRH.Base.Control_Contratistas.Vehiculos.VEHICULO"/>
			<flow:exit-flow return-path="#SOURCE:"/>
		</flow:action>
		<flow:action name="CALL-FROM-LIST">
			<doc:set-attribute from-attr-path="#SOURCE:@LIST" to-attr-path="#SELECT:@ID"/>
		</flow:action>
	</flow:main>
	<flow:form mode="LIST" parent-doc="PARENT" doc="SOURCE" form-class="NucleusRH.Base.Control_Contratistas.Vehiculos.VEHICULO.MAIN.STD_LIST.autoform" name="NucleusRH.Base.Control_Contratistas.Vehiculos.VEHICULO.MAIN.STD_LIST.autoform:LIST">
		<flow:action name="on-show"/>
		<flow:action name="BACK">
			<flow:close-form/>
		</flow:action>
		<flow:action name="SHOW">
			<flow:open-form mode="SHOW" parent-doc-path="#SOURCE:" doc-path="#SOURCE:" form-class="NucleusRH.Base.Control_Contratistas.Vehiculos.VEHICULO.MAIN.STD_REG.autoform"/>
		</flow:action>
		<flow:action name="ADD">
			<flow:open-form mode="NEW" parent-doc-path="#SOURCE:" doc-path="#SOURCE:" form-class="NucleusRH.Base.Control_Contratistas.Vehiculos.VEHICULO.MAIN.STD_REG.autoform"/>
		</flow:action>
		<flow:action name="EDIT">
			<flow:open-form mode="EDIT" parent-doc-path="#SOURCE:" doc-path="#SOURCE:" form-class="NucleusRH.Base.Control_Contratistas.Vehiculos.VEHICULO.MAIN.STD_REG.autoform"/>
		</flow:action>
		<flow:action name="ADMIN">
			<doc:new-object doc="DDO" class="NucleusRH.Base.Control_Contratistas.Vehiculos.VEHICULO"/>
			<doc:load-object id-path="#SOURCE:@ID" doc="DDO" load-child="1" load-all="1" class="NucleusRH.Base.Control_Contratistas.Vehiculos.VEHICULO"/>
			<flow:open-form mode="SHOW" parent-doc-path="#DDO:" doc-path="#DDO:" form-class="Nomad.Base.Security.form"/>
		</flow:action>
		<flow:action name="DELETE">
			<flow:call-action action="INT-DELETE"/>
		</flow:action>
		<flow:action name="INT-DELETE">
			<doc:new-object doc="DDO" class="NucleusRH.Base.Control_Contratistas.Vehiculos.VEHICULO"/>
			<doc:load-object id-path="#SOURCE:@ID" doc="DDO" load-child="1" load-all="1" class="NucleusRH.Base.Control_Contratistas.Vehiculos.VEHICULO"/>
			<doc:delete-object doc-path="#DDO:"/>
			<doc:save-object doc="DDO" class="NucleusRH.Base.Control_Contratistas.Vehiculos.VEHICULO"/>
		</flow:action>
	</flow:form>
	<flow:form mode="SELECT" parent-doc="PARENT" doc="SOURCE" form-class="NucleusRH.Base.Control_Contratistas.Vehiculos.VEHICULO.MAIN.STD_LIST.autoform" name="NucleusRH.Base.Control_Contratistas.Vehiculos.VEHICULO.MAIN.STD_LIST.autoform:SELECT">
		<flow:action name="on-show"/>
		<flow:action name="BACK">
			<doc:set-attribute from-value="1" to-attr-path="#SOURCE:@cancel"/>
			<flow:exit-flow return-path="#SOURCE:"/>
		</flow:action>
		<flow:action name="ACCEPT">
			<doc:set-attribute from-value="0" to-attr-path="#SOURCE:@cancel"/>
			<flow:exit-flow return-path="#SOURCE:"/>
		</flow:action>
	</flow:form>
	<flow:form mode="SHOW" parent-doc="PARENT" doc="SOURCE" form-class="NucleusRH.Base.Control_Contratistas.Vehiculos.VEHICULO.MAIN.STD_REG.autoform" name="NucleusRH.Base.Control_Contratistas.Vehiculos.VEHICULO.MAIN.STD_REG.autoform:SHOW">
		<flow:action name="on-show"/>
		<flow:action name="ADMIN">
			<flow:open-form mode="SHOW" parent-doc-path="#DDO:" doc-path="#DDO:" form-class="Nomad.Base.Security.form"/>
		</flow:action>
		<flow:action name="on-open">
			<flow:call-action action="REFRESH"/>
		</flow:action>
		<flow:action name="REFRESH">
			<doc:new-object doc="DDO" class="NucleusRH.Base.Control_Contratistas.Vehiculos.VEHICULO"/>
			<doc:load-object id-path="#SOURCE:@ID" doc="DDO" load-child="0" load-all="1" class="NucleusRH.Base.Control_Contratistas.Vehiculos.VEHICULO"/>
		</flow:action>
		<flow:action name="BACK">
			<flow:close-form/>
		</flow:action>
		<flow:action name="EDIT">
			<flow:close-form next-action="EDIT"/>
		</flow:action>
		<flow:action name="DELETE">
			<flow:close-form next-action="DELETE"/>
		</flow:action>
	</flow:form>
	<flow:form mode="EDIT" parent-doc="PARENT" doc="SOURCE" form-class="NucleusRH.Base.Control_Contratistas.Vehiculos.VEHICULO.MAIN.STD_REG.autoform" name="NucleusRH.Base.Control_Contratistas.Vehiculos.VEHICULO.MAIN.STD_REG.autoform:EDIT">
		<flow:action name="on-show"/>
		<flow:action name="on-open">
			<flow:call-action action="REFRESH"/>
		</flow:action>
		<flow:action name="REFRESH">
			<doc:new-object doc="DDO" class="NucleusRH.Base.Control_Contratistas.Vehiculos.VEHICULO"/>
			<doc:load-object id-path="#SOURCE:@ID" doc="DDO" load-child="0" load-all="1" class="NucleusRH.Base.Control_Contratistas.Vehiculos.VEHICULO"/>
		</flow:action>
		<flow:action name="CANCEL">
			<flow:close-form/>
		</flow:action>
		<flow:action name="SAVE">
			<flow:call-action action="INT-VALIDATE"/>
			<flow:call-action action="INT-SAVE"/>
			<flow:close-form/>
		</flow:action>
		<flow:action name="DELETE">
			<flow:close-form next-action="DELETE"/>
		</flow:action>
		<flow:action name="INT-VALIDATE"/>
		<flow:action name="INT-SAVE">
			<doc:save-object doc="DDO" class="NucleusRH.Base.Control_Contratistas.Vehiculos.VEHICULO"/>
		</flow:action>
	</flow:form>
	<flow:form mode="NEW" parent-doc="PARENT" doc="SOURCE" form-class="NucleusRH.Base.Control_Contratistas.Vehiculos.VEHICULO.MAIN.STD_REG.autoform" name="NucleusRH.Base.Control_Contratistas.Vehiculos.VEHICULO.MAIN.STD_REG.autoform:NEW">
		<flow:action name="on-show"/>
		<flow:action name="on-open">
			<flow:call-action action="REFRESH"/>
		</flow:action>
		<flow:action name="REFRESH">
			<flow:call-action action="INT-CREATE"/>
		</flow:action>
		<flow:action name="CANCEL">
			<flow:close-form/>
		</flow:action>
		<flow:action name="SAVE">
			<flow:call-action action="INT-VALIDATE"/>
			<flow:call-action action="INT-SAVE"/>
			<flow:close-form/>
		</flow:action>
		<flow:action name="INT-CREATE">
			<doc:new-object doc="DDO" class="NucleusRH.Base.Control_Contratistas.Vehiculos.VEHICULO"/>
		</flow:action>
		<flow:action name="INT-VALIDATE"/>
		<flow:action name="INT-SAVE">
			<doc:save-object doc="DDO" class="NucleusRH.Base.Control_Contratistas.Vehiculos.VEHICULO"/>
		</flow:action>
	</flow:form>
	<flow:form mode="SHOW" name="Nomad.Base.Security.form:SHOW" form-class="Nomad.Base.Security.form" doc="SOURCE">
		<flow:action name="on-show"/>
		<flow:action name="BACK">
			<flow:close-form/>
		</flow:action>
	</flow:form>
</flow:flow>
