<flow:flow xmlns:flow="nomad_engine.flow" extends="NucleusRH.Base.Organizacion.Empresas.CHECK.flow" default_action="OPEN-GUIA" name="NucleusRH.Base.Personal.TiposPersonal.TIPO_PERSONAL.check.flow">
	<flow:info label="Flow guia para NucleusRH.Base.Personal.TiposPersonal.TIPO_PERSONAL.check"/>
	<flow:main doc="SOURCE">
		<flow:action name="OPEN-GUIA">
			<flow:open-form doc-path="#DATA:" form-class="NucleusRH.Base.Personal.TiposPersonal.TIPO_PERSONAL.check.form" mode="SHOW"/>
		</flow:action>
	</flow:main>
	<flow:form extends="NucleusRH.Base.Organizacion.Empresas.CHECK.form:SHOW" doc="SOURCE" mode="SHOW" name="NucleusRH.Base.Personal.TiposPersonal.TIPO_PERSONAL.check.form:SHOW" form-class="NucleusRH.Base.Personal.TiposPersonal.TIPO_PERSONAL.check.form"/>
</flow:flow>
