<flow:flow extends="Nomad.Simple.guia.flow" xmlns:doc="nomad_engine.form" xmlns:qry="nomad_engine.form" xmlns:flow="nomad_engine.form" name="NucleusRH.Base.Liquidacion.Reporte.LegajoLiq.guia">
	<flow:info label="Flow guia para NucleusRH.Base.Liquidacion.Reporte.LegajoLiq"/>
	<flow:declare>
		<doc:define name="RS"/>
		<qry:define declare="&lt;helper-mess liq=&quot;63&quot; id=&quot;301&quot;/&gt;" name="X2C">
			<qry:main doc="SOURCE">
				<qry:element name="helper-mess">
					<qry:attribute type="Nomad.NSystem.String" value="#SOURCE:helper-mess/@liq" name="liq"/>
					<qry:insert-select doc-path="#SOURCE:" name="RS1"/>
				</qry:element>
			</qry:main>
			<qry:select doc="SOURCE" name="RS1">
				<qry:xquery>
					for $r in sql('select 
        PER02_PERSONAL_EMP.E_NUMERO_LEGAJO as CODE, 
        PER01_PERSONAL.D_APE_Y_NOM as TEXT, 
        liq25_personal_liq.oi_personal_liq as ID
        from 
        PER02_PERSONAL_EMP, 
        PER01_PERSONAL, 
        liq25_personal_liq, 
        LIQ07_PERSONAL 
        
        JOIN
        PER02_PERSONAL_EMP.OI_PERSONAL INNER PER01_PERSONAL.OI_PERSONAL,
        liq07_personal.oi_personal_emp INNER per02_personal_emp.oi_personal_emp,
        liq25_personal_liq.oi_personal_emp INNER per02_personal_emp.oi_personal_emp				
        WHERE
        liq25_personal_liq.oi_liquidacion = {#SOURCE:helper-mess/@liq}
        AND 
        liq25_personal_liq.oi_personal_liq={#SOURCE:helper-mess/@id}  
        ')/ROWS/ROW
				</qry:xquery>
				<qry:out>
					<qry:attribute type="Nomad.NSystem.Int" value="$r/@ID" name="id"/>
					<qry:attribute type="Nomad.NSystem.Int" value="$r/@ID" name="value"/>
					<qry:attribute type="Nomad.NSystem.String" value="$r/@CODE" name="code"/>
					<qry:attribute type="Nomad.NSystem.String" value="$r/@TEXT" name="text"/>
				</qry:out>
			</qry:select>
		</qry:define>
		<qry:define declare="&#9;&lt;helper-mess code=&quot;1&quot; liq=&quot;63&quot;/&gt;" name="C2X">
			<qry:main doc="SOURCE">
				<qry:element name="helper-mess">
					<qry:attribute type="Nomad.NSystem.String" value="#SOURCE:helper-mess/@liq" name="liq"/>
					<qry:insert-select doc-path="#SOURCE:" name="RS2"/>
				</qry:element>
			</qry:main>
			<qry:select doc="SOURCE" name="RS2">
				<qry:xquery>
					for $r in sql('select 
        PER02_PERSONAL_EMP.E_NUMERO_LEGAJO as CODE, 
        PER01_PERSONAL.D_APE_Y_NOM as TEXT, 
        liq25_personal_liq.oi_personal_liq as ID
        from 
        PER02_PERSONAL_EMP, 
        PER01_PERSONAL, 
        liq25_personal_liq, 
        LIQ07_PERSONAL 
        
        JOIN
        PER02_PERSONAL_EMP.OI_PERSONAL INNER PER01_PERSONAL.OI_PERSONAL,
        liq07_personal.oi_personal_emp INNER per02_personal_emp.oi_personal_emp,        
        liq25_personal_liq.oi_personal_emp INNER per02_personal_emp.oi_personal_emp				
        
        WHERE        
        liq25_personal_liq.oi_liquidacion = {#SOURCE:helper-mess/@liq}
        AND 
        PER02_PERSONAL_EMP.E_NUMERO_LEGAJO={#SOURCE:helper-mess/@code}  
        ')/ROWS/ROW
				</qry:xquery>
				<qry:out>
					<qry:attribute type="Nomad.NSystem.Int" value="$r/@ID" name="id"/>
					<qry:attribute type="Nomad.NSystem.Int" value="$r/@ID" name="value"/>
					<qry:attribute type="Nomad.NSystem.String" value="$r/@CODE" name="code"/>
					<qry:attribute type="Nomad.NSystem.String" value="$r/@TEXT" name="text"/>
				</qry:out>
			</qry:select>
		</qry:define>
		<qry:define declare="&lt;helper-mess liq=&quot;63&quot;/&gt;" name="HELP">
			<qry:main doc="SOURCE">
				<qry:element name="ROWS">
					<qry:insert-select name="RS1" doc-path="#SOURCE:"/>
				</qry:element>
			</qry:main>
			<qry:select doc="SOURCE" name="RS1">
				<qry:xquery>
					for $r in sql('select 
        PER02_PERSONAL_EMP.E_NUMERO_LEGAJO as CODE, 
        PER01_PERSONAL.D_APE_Y_NOM as TEXT, 
        liq25_personal_liq.oi_personal_liq as ID
        from 
        PER02_PERSONAL_EMP, 
        PER01_PERSONAL, 
        liq25_personal_liq,
        LIQ07_PERSONAL
        
        JOIN
        PER02_PERSONAL_EMP.OI_PERSONAL INNER PER01_PERSONAL.OI_PERSONAL,
        liq07_personal.oi_personal_emp INNER per02_personal_emp.oi_personal_emp,
        liq25_personal_liq.oi_personal_emp INNER per02_personal_emp.oi_personal_emp
        
        WHERE
        liq25_personal_liq.oi_liquidacion = {#SOURCE:helper-mess/@liq}
				')/ROWS/ROW
				</qry:xquery>
				<qry:out>
					<qry:element name="ROW">
						<qry:attribute type="Nomad.NSystem.String" value="#SOURCE:helper-mess/@liq" name="liq"/>
						<qry:attribute type="Nomad.NSystem.Int" value="$r/@ID" name="id"/>
						<qry:attribute type="Nomad.NSystem.Int" value="$r/@ID" name="value"/>
						<qry:attribute type="Nomad.NSystem.String" value="$r/@CODE" name="code"/>
						<qry:attribute type="Nomad.NSystem.String" value="$r/@TEXT" name="text"/>
					</qry:element>
				</qry:out>
			</qry:select>
		</qry:define>
	</flow:declare>
</flow:flow>
