<flow:flow extends="NucleusRH.Base.Personal.LegajoEmpresa.PERSONAL_EMP.guia.autoflow" xmlns:doc="nomad_engine.form" xmlns:qry="nomad_engine.form" xmlns:flow="nomad_engine.form" name="NucleusRH.Base.Liquidacion.Legajo_Liquidacion.PERSONAL_EMP.guia">
	<flow:declare>
		<qry:define declare="&lt;helper-mess ID=&quot;1&quot;/&gt;" name="X2C">
			<qry:main doc="SOURCE">
				<qry:element name="ROW">
					<qry:insert-select doc-path="#SOURCE:" name="RS1"/>
				</qry:element>
			</qry:main>
			<qry:select doc="SOURCE" name="RS1">
				<qry:xquery>
					for $r in sql('
				SELECT PER02_PERSONAL_EMP.oi_personal_emp AS ID, 
				PER02_PERSONAL_EMP.e_numero_legajo AS CODE, 
				PER01_PERSONAL.d_ape_y_nom AS TEXT, 
				PER01_PERSONAL.oi_tipo_documento, 
				PER01_PERSONAL.c_nro_documento, PER01_PERSONAL.c_sexo, 
				PER01_PERSONAL.oi_grupo_sanguineo, PER01_PERSONAL.f_nacim, 
				PER01_PERSONAL.oi_nacionalidad, PER01_PERSONAL.oi_idioma,
				PER01_PERSONAL.oi_estado_civil, PER01_PERSONAL.c_nro_cuil, 
				PER01_PERSONAL.oi_localidad, PER01_PERSONAL.d_email, 
				PER01_PERSONAL.te_celular, PER01_PERSONAL.oi_foto, 
				ORG12_NACIONALID.c_nacionalidad, ORG12_NACIONALID.d_nacionalidad,								
				ORG03_EMPRESAS.c_empresa, ORG03_EMPRESAS.d_empresa
				
				FROM PER02_PERSONAL_EMP, ORG03_EMPRESAS, PER01_PERSONAL, ORG12_NACIONALID
				JOIN PER02_PERSONAL_EMP.OI_PERSONAL INNER PER01_PERSONAL.OI_PERSONAL,
				PER01_PERSONAL.oi_nacionalidad LEFT OUTER ORG12_NACIONALID.oi_nacionalidad,
				PER02_PERSONAL_EMP.oi_empresa INNER ORG03_EMPRESAS.oi_empresa
				WHERE PER02_PERSONAL_EMP.oi_personal_emp = {#SOURCE:helper-mess/@ID}
			')/ROWS/ROW
				</qry:xquery>
				<qry:out>
					<qry:attribute type="Nomad.NSystem.Int" value="$r/@ID" name="id"/>
					<qry:attribute type="Nomad.NSystem.Int" value="$r/@ID" name="value"/>
					<qry:attribute type="Nomad.NSystem.String" value="$r/@c_empresa + ' - ' + $r/@CODE" name="code"/>
					<qry:attribute type="Nomad.NSystem.String" value="$r/@d_empresa + ' - ' + $r/@TEXT" name="text"/>
					<qry:attribute value="$r/@oi_tipo_documento" name="oi_tipo_documento" type="Nomad.NSystem.String"/>
					<qry:attribute value="$r/@c_nro_documento" name="c_nro_documento" type="Nomad.NSystem.String"/>
					<qry:attribute value="$r/@c_sexo" name="c_sexo" type="Nomad.NSystem.String"/>
					<qry:attribute value="$r/@oi_grupo_sanguineo" name="oi_grupo_sanguineo" type="Nomad.NSystem.String"/>
					<qry:attribute value="$r/@f_nacim" name="f_nacim" type="Nomad.NSystem.String"/>
					<qry:attribute value="$r/@oi_nacionalidad" name="oi_nacionalidad" type="Nomad.NSystem.String"/>
					<qry:attribute value="$r/@c_nacionalidad" name="c_nacionalidad" type="Nomad.NSystem.String"/>
					<qry:attribute value="$r/@d_nacionalidad" name="d_nacionalidad" type="Nomad.NSystem.String"/>
					<qry:attribute value="$r/@oi_idioma" name="oi_idioma" type="Nomad.NSystem.String"/>
					<qry:attribute value="$r/@oi_estado_civil" name="oi_estado_civil" type="Nomad.NSystem.String"/>
					<qry:attribute value="$r/@c_nro_cuil" name="c_nro_cuil" type="Nomad.NSystem.String"/>
					<qry:attribute value="$r/@oi_localidad" name="oi_localidad" type="Nomad.NSystem.String"/>
					<qry:attribute value="$r/@d_email" name="d_email" type="Nomad.NSystem.String"/>
					<qry:attribute value="$r/@te_celular" name="te_celular" type="Nomad.NSystem.String"/>
					<qry:attribute value="$r/@oi_foto" name="oi_foto" type="Nomad.NSystem.String"/>
					<qry:insert-select doc-path="." name="qry_localidad"/>
				</qry:out>
			</qry:select>
			<qry:select doc="SOURCE" name="qry_localidad">
				<qry:xquery>
					for $r in sql('
				SELECT ORG35_PAISES.c_pais, ORG35_PROVINCIAS.c_provincia, 
				ORG19_LOCALIDADES.c_localidad, ORG35_PAISES.d_pais,
				ORG35_PROVINCIAS.d_provincia, ORG19_LOCALIDADES.d_localidad
				FROM ORG35_PROVINCIAS, ORG19_LOCALIDADES, ORG35_PAISES
				JOIN ORG35_PAISES.oi_pais INNER ORG35_PROVINCIAS.oi_pais,
				ORG35_PROVINCIAS.oi_provincia INNER ORG19_LOCALIDADES.oi_provincia
				WHERE ORG19_LOCALIDADES.oi_localidad = {#SOURCE:@oi_localidad}
			')/ROWS/ROW
				</qry:xquery>
				<qry:out>
					<qry:attribute type="Nomad.NSystem.Int" value="$r/@c_pais + '-' + $r/@c_provincia + '-' + $r/@c_localidad" name="c_localidad"/>
					<qry:attribute type="Nomad.NSystem.Int" value="$r/@d_pais + '-' + $r/@d_provincia + '-' + $r/@d_localidad" name="d_localidad"/>
				</qry:out>
			</qry:select>
		</qry:define>
	</flow:declare>
</flow:flow>
