<flow:flow xmlns:flow="nomad_engine.flow" xmlns:doc="nomad_engine.doc" xmlns:qry="nomad_engine.qry" extends="Nomad.Base.flow" name="ReciboSueldo">
	<flow:info label="ReportePresencias"/>
	<flow:declare>
		<doc:define name="FILTERDATA">
			<FILTRO excluir="" oi_liquidacion="">
				<PERSONAS/>
			</FILTRO>
		</doc:define>
		<doc:define name="PARAMETERS"/>
		<qry:define declare="&lt;FILTRO leg_where=&quot;LEG.e_numero_legajo=4082&quot; legID=&quot;&quot; oi_sucursal=&quot;&quot; oi_banco=&quot;&quot; oi_sindicato=&quot;&quot; oi_obra_social=&quot;&quot; oi_afjp=&quot;&quot; oi_contrato=&quot;&quot; escructura_childs=&quot;&quot; oi_estructura=&quot;&quot; oi_ubicacion_hasta=&quot;&quot; oi_ubicacion_desde=&quot;&quot; oi_categoria=&quot;&quot; soloconvenio=&quot;&quot; oi_convenio=&quot;&quot; oi_centro_costo=&quot;&quot; fecha_hasta=&quot;&quot; fecha_desde=&quot;&quot; oi_tipo_personal=&quot;&quot; oi_forma_pago=&quot;&quot; egresado=&quot;&quot; oi_indic_activo=&quot;&quot; listlegajos=&quot;4082&quot; grupo_sanguineo=&quot;&quot; sexo=&quot;&quot; documento=&quot;&quot; nombre=&quot;&quot; activos=&quot;&quot; gpers=&quot;&quot; orden2=&quot;0&quot; orden1=&quot;ORG03_UBICACIONES.d_ubicacion&quot; chkInvertir=&quot;&quot; chkOcultarLeyenda=&quot;&quot; empresa=&quot;1&quot; gcustom=&quot;&quot; oi_liquidacion=&quot;171&quot; excluir=&quot;&quot;&gt;-&lt;PERSONAS nmd-col=&quot;1&quot;&gt;&lt;ROW VALUES=&quot;14,18,22,24,521,527,539,37,39,545,546,548,550,42,564,566,567,569,570,44,4229,4230,580,587,4234,4236,600,601,603,606,607,609,610,4239,616,53,619,621,622,623,626,631,637,642,4244,643,4245,646,57,59,654,668,670,671,673,675,677,679,682,67,68,694,695,75,716,4256,720,721,722,83,727,4260,732,733,4263,736,4264,4265,87,740,742,743,747,748,4268,756,4269,759,761,763,4271,4272,767,4273,772,777,778,779,4276,782&quot;/&gt;&lt;ROW VALUES=&quot;4277,785,4278,787,4279,99,100,788,791,793,794,4283,101,795,4284,800,802,4286,102,103,804,806,807,4287,104,808,105,809,811,819,107,4291,824,825,827,4292,829,833,4293,837,839,840,843,112,846,848,853,4299,113,857,4301,861,4302,117,119,869,123,125,879,880,891,4304,892,893,898,899,905,909,914,916,919,4309,131,928,929,134,935,939,941,945,946,947,138,948,139,140,4315,954,4317,959,960,961,962,4320,4321,971,142,975,976,977&quot;/&gt;&lt;ROW VALUES=&quot;979,4324,982,985,988,144,4325,996,997,1008,1010,1011,4330,1013,1015,1017,1023,155,156,1026,1029,4331,1032,1033,157,1039,159,4334,4335,1045,4337,1047,1048,1049,4338,1052,1053,4339,1061,1062,4342,1072,1075,1079,1082,1083,1085,1087,165,4345,166,1100,1104,1105,167,1113,175,1122,1123,178,1139,181,182,1162,1164,1165,1175,1176,1177,1179,1180,1181,1187,1188,184,1193,1197,1199,190,1208,1212,193,194,1214,1215,1216,1217,4347,1218,1219,1227,1230,1232,199,1236,1242,4350,1245,204,1246&quot;/&gt;&lt;ROW VALUES=&quot;4351,1264,1270,1271,209,212,1280,1281,1298,1300,1301,1307,215,1308,1310,1311,216,219,1338,220,1343,1347,1356,1374,1376,1378,225,1395,1397,232,1408,1412,1413,233,234,1428,1429,1438,235,1444,1447,1448,1449,4365,4366,1451,238,4371,1457,1458,1459,239,1466,1467,1470,1471,1472,1476,1478,242,243,244,1504,1518,4375,1536,1537,1539,4377,1545,1546,1547,248,1548,1549,1550,1552,1567,250,251,252,254,1573,1574,1575,256,258,1577,1580,1581,4379,1593,1594,1599,1600,1611,1612,271,1617,4381&quot;/&gt;&lt;ROW VALUES=&quot;1619,1621,1625,1634,1636,4382,1641,278,1642,1645,1646,1649,279,1651,1652,281,1655,1656,1657,1658,283,1659,1660,1661,1662,1663,1664,1675,285,1676,1678,1681,1684,1689,1690,288,1695,1696,1697,1698,1699,4383,1706,1708,1709,1710,1711,1716,4384,1720,1721,294,1726,1727,4385,295,296,1730,297,1731,298,4386,4387,1737,1738,299,1741,1742,1743,1744,1745,303,1746,1747,1748,1749,1750,1752,1756,1761,307,1763,1764,1766,1768,1769,1770,1771,310,1779,4388,1782,311,1785,1786,1787,1790,1791,1794,1795&quot;/&gt;&lt;ROW VALUES=&quot;1797,1798,1801,1802,1805,1806,313,1807,1808,4389,1809,4391,1814,1816,1817,1818,1819,314,1821,1822,315,1825,1827,1830,1831,1836,1838,1839,1840,1841,1842,1843,4393,1847,320,1858,1859,1860,1861,1862,1863,1864,1865,1866,1868,1869,1870,1871,4394,1875,1876,1877,1883,1885,1887,1888,4395,1892,1893,1894,1895,1896,1897,1900,1901,1902,1903,1904,1905,1907,1908,1909,1910,1911,1912,1913,1917,1918,1919,1921,323,1925,1926,1929,1930,1931,1932,1933,1934,1935,1936,1938,325,1940,327,328,1953,1954,1955,1956&quot;/&gt;&lt;ROW VALUES=&quot;1957,1958,1959,1960,4396,1961,1962,1964,4398,1965,1966,1967,1968,1971,4399,1972,1973,1974,1976,1979,329,1980,1981,1982,1983,1984,1985,1986,1987,330,1988,1989,1991,1992,1993,1994,1995,1996,1997,1998,1999,2004,4402,2006,2009,2010,2011,2012,2015,2016,2017,2020,2022,2023,2024,2025,2026,2027,2028,2029,2030,2031,2032,2033,2047,2049,2050,4404,2051,331,2053,2054,2055,2056,2057,332,2058,2059,2060,2061,2062,2063,2064,2067,2069,2070,2071,2072,2073,2074,2075,2076,2077,2078,2081,2083,2084,2085,2086,2087&quot;/&gt;&lt;ROW VALUES=&quot;2088,2089,2090,2091,4405,2092,2093,2094,2099,2100,2102,2103,2104,2105,2106,2107,4407,2109,2110,2112,2113,2114,334,2115,2116,2117,2118,2119,2120,2121,2123,2124,2125,2126,4408,335,2128,2129,2130,2131,2132,2133,2134,2136,2137,2138,2139,2140,2141,2142,2143,2146,2147,2148,2149,2150,2151,2153,2154,2156,2157,4409,2160,4410,2164,2166,2167,337,4411,2175,4412,2176,2179,2180,2181,2182,2183,339,2184,2186,2188,2189,2190,2192,4414,2212,340,2245,2246,2250,2252,2258,341,2260,2261,2263,2267,2268,2269,2270&quot;/&gt;&lt;ROW VALUES=&quot;2272,4415,2278,2312,2330,2340,2360,2384,2390,2391,2392,346,2402,2403,2404,2405,2406,2407,2411,2412,2413,2414,2418,2420,2422,2427,2431,4416,4417,2438,2443,2444,2446,2447,2448,2449,2450,2454,2455,2456,2457,349,2458,4418,2463,4444,4445,4446,4447,4448,4449,4450,4451,4452,4453,4454,4455,4456,4457,4502,4547,4574,4727,4732,4733,4734,4735,4736,4737,4738,4747&quot;/&gt;&lt;/PERSONAS&gt;&lt;/FILTRO&gt;" name="QRY_RECIBOS_LIQ">
			<qry:main doc="SOURCE">
				<qry:element name="FLAG">
					<qry:append-doc name="FILTRO" doc-path="#SOURCE:FILTRO"/>
					<qry:append-doc name="PUNTO" doc-path="."/>
					<qry:attribute value="'0'" name="flag"/>
					<qry:attribute value="iif(#SOURCE:FILTRO/@chkOcultarLeyenda!='',#SOURCE:FILTRO/@chkOcultarLeyenda,0)" name="chkOcultarLeyenda"/>
					<qry:attribute value="iif(#SOURCE:FILTRO/@chkInvertir!='',#SOURCE:FILTRO/@chkInvertir,0)" name="chkInvertir"/>
					<qry:insert-select name="QRY_EMPRESA" doc-path="#SOURCE:FILTRO"/>
					<qry:element name="ROWS">
						<qry:attribute name="flag" value="0"/>
						<qry:attribute name="hts:delete" value="1"/>
						<qry:insert-select doc-path="#SOURCE:FILTRO/PERSONAS/ROW" name="QRY_RECIBOS"/>
					</qry:element>
					<qry:element name="RECIBOS">
						<qry:insert-select doc-path="../ROWS" name="QRY_ORDER"/>
					</qry:element>
					<qry:attribute name="flag" value="ROWS/@flag"/>
				</qry:element>
			</qry:main>
			<qry:select name="QRY_EMPRESA" doc="SOURCE">
				<qry:xquery>
					for $r in sql('
				SELECT 
					LIQ19_LIQUIDACION.oi_empresa,
					ORG03_EMPRESAS.c_empresa
				FROM
					LIQ19_LIQUIDACION, ORG03_EMPRESAS
				JOIN
					LIQ19_LIQUIDACION.oi_empresa INNER ORG03_EMPRESAS.oi_empresa
				WHERE
					LIQ19_LIQUIDACION.oi_liquidacion = {#SOURCE:@oi_liquidacion}
			')ROWS/ROW
				</qry:xquery>
				<qry:out>
					<qry:attribute value="$r/@oi_empresa" name="oi_empresa"/>
					<qry:attribute value="$r/@c_empresa" name="c_empresa"/>
				</qry:out>
			</qry:select>
			<qry:select name="QRY_RECIBOS" doc="SOURCE">
				<qry:xquery>
					for $r in sql('			
				SELECT
					{%? (#FILTRO:@orden1!=''){% {%=#FILTRO:@orden1 %} as orden1,%}{% %} %}
					{%? (#FILTRO:@orden2!=''){% {%=#FILTRO:@orden2 %} as orden2,%}{% %} %}
					LIQ20_TOT_LIQ_PER.oi_tot_liq_per, 
					LIQ99_RECIBOS.e_numero_legajo,
					LIQ99_RECIBOS.e_numero_legajo AS LEG
				FROM
					ORG03_EMPRESAS,
					LIQ19_LIQUIDACION,
					LIQ99_LIQUIDACION,
					LIQ99_RECIBOS, 
					LIQ20_TOT_LIQ_PER,
					LIQ25_PERSONAL_LIQ,
					PER02_PERSONAL_EMP,
					LIQ97_PERSONAL_EMP,
					ORG03_UBICACIONES(ORG03_UBICACIONES.oi_empresa = {%=$PUNTO/@oi_empresa%})
				JOIN	
					ORG03_EMPRESAS.oi_empresa INNER LIQ19_LIQUIDACION.oi_empresa,
					ORG03_EMPRESAS.oi_empresa INNER PER02_PERSONAL_EMP.oi_empresa,
					LIQ19_LIQUIDACION.c_liquidacion INNER LIQ99_LIQUIDACION.c_liquidacion,
					ORG03_EMPRESAS.c_empresa INNER LIQ99_LIQUIDACION.c_empresa,
					LIQ99_LIQUIDACION.oi_liquidacion_ddo INNER LIQ99_RECIBOS.oi_liquidacion_ddo,
					LIQ99_RECIBOS.e_numero_legajo INNER PER02_PERSONAL_EMP.e_numero_legajo,
					LIQ99_RECIBOS.oi_tot_liq_per INNER LIQ20_TOT_LIQ_PER.oi_tot_liq_per,
					LIQ19_LIQUIDACION.oi_liquidacion INNER LIQ25_PERSONAL_LIQ.oi_liquidacion,
					PER02_PERSONAL_EMP.oi_personal_emp INNER LIQ25_PERSONAL_LIQ.oi_personal_emp,
					LIQ20_TOT_LIQ_PER.oi_per_emp_ddo INNER LIQ97_PERSONAL_EMP.oi_per_emp_ddo,
					LIQ97_PERSONAL_EMP.c_ubicacion LEFT OUTER ORG03_UBICACIONES.c_ubicacion
				WHERE 	
					LIQ99_LIQUIDACION.c_estado = \'F\'
					AND LIQ19_LIQUIDACION.oi_liquidacion = {#FILTRO:@oi_liquidacion}
					{%? (string(#SOURCE:@VALUES)!='') {% AND LIQ25_PERSONAL_LIQ.oi_personal_emp in ({%=string(#SOURCE:@VALUES) %}) %} {%  %} %}
				ORDER BY
					{%? (#FILTRO:@orden1!='') {% orden1 ASC, %} {% %} %}
					{%? (#FILTRO:@orden2!='') {% orden2 ASC, %} {% %} %}
					LEG ASC 
			')ROWS/ROW
				</qry:xquery>
				<qry:out>
					<qry:element name="RECIBO">
						<qry:attribute value="$r/@oi_tot_liq_per" name="oi_tot_liq_per"/>
						<qry:attribute value="iif($FILTRO/@orden1!='' AND $FILTRO/@orden1!='0', NMD_FILLRIGHT($r/@orden1, ' ', 50, 'L'), '')" name="order"/>
						<qry:attribute value="@order + iif($FILTRO/@orden2!='' AND $FILTRO/@orden2!='0', NMD_FILLRIGHT($r/@orden2, ' ', 50, 'L'), '')" name="order"/>
						<qry:attribute value="@order + NMD_FILLLEFT($r/@e_numero_legajo, '0', 10, 'R')" name="order"/>
						<qry:attribute value="$r/@e_numero_legajo" name="e_numero_legajo"/>
					</qry:element>
					<qry:attribute value="'1'" name="flag"/>
				</qry:out>
			</qry:select>
			<!--qry:select name="QRY_FLAG" doc="SOURCE">
		<qry:xquery>
			for $r in #SOURCE:RECIBOS/RECIBO
		</qry:xquery>
		<qry:out>
			<qry:attribute value="'1'" name="flag"/>
		</qry:out>
	</qry:select-->
			<qry:select name="QRY_ORDER" doc="SOURCE">
				<qry:xquery>
					for $r in #SOURCE:RECIBO ORDERBY $r/@order ASC
				</qry:xquery>
				<qry:out>
					<qry:insert-element doc-path="$r"/>
				</qry:out>
			</qry:select>
		</qry:define>
		<doc:define name="FILTERLIQ">
			<FILTRO excluir="" oi_liquidacion="">
				<LIQUIDACIONES/>
			</FILTRO>
		</doc:define>
		<doc:define name="PARAMLIQS"/>
		<qry:define declare="&lt;FILTRO oi_empresa=&quot;164&quot; legajo=&quot;15139&quot; excluir=&quot;&quot; oi_liquidacion=&quot;&quot; gcustom=&quot;&quot; periodo_desde=&quot;201201&quot; periodo_hasta=&quot;201601&quot; liqID=&quot;5482&quot; oi_personal_emp=&quot;1&quot;&gt;&#13;&#10;&#9;&lt;LIQUIDACIONES&gt;&lt;ROW VALUES=&quot;5482&quot; /&gt;&lt;/LIQUIDACIONES&gt;&#13;&#10;&lt;/FILTRO&gt;" name="QRY_PARAM_LIQ">
			<qry:main doc="SOURCE">
				<qry:element name="FLAG">
					<qry:attribute value="1" name="flag"/>
					<qry:attribute value="0" name="chkOcultarLeyenda"/>
					<qry:attribute value="0" name="chkInvertir"/>
					<qry:attribute name="oi_empresa" value="#SOURCE:FILTRO/@oi_empresa"/>
					<qry:element name="RECIBOS">
						<qry:element name="RECIBO">
							<qry:attribute name="oi_tot_liq_per" value="#SOURCE:FILTRO/LIQUIDACIONES/ROW/@VALUES"/>
							<qry:attribute name="e_numero_legajo" value="#SOURCE:FILTRO/@legajo"/>
						</qry:element>
					</qry:element>
				</qry:element>
			</qry:main>
		</qry:define>
		<qry:define name="QRY_LEGAJO">
			<qry:main doc="SOURCE">
				<qry:element name="PER">
					<qry:attribute name="flag" value="'0'"/>
					<qry:insert-select name="sql1" doc-path="."/>
				</qry:element>
			</qry:main>
			<qry:select doc="SOURCE" name="sql1">
				<qry:xquery>
					for $r in SQL(' 
				SELECT 
					PER02_PERSONAL_EMP.oi_personal_emp,
					PER02_PERSONAL_EMP.e_numero_legajo,
					PER01_PERSONAL.oi_personal,
					PER01_PERSONAL.d_ape_y_nom,
					PER01_PERSONAL.oi_foto, 
					ORG03_EMPRESAS.oi_empresa,
					ORG03_EMPRESAS.d_empresa
					
				FROM
					PER02_PERSONAL_EMP, 
					PER01_PERSONAL,
					ORG03_EMPRESAS
				JOIN
					PER02_PERSONAL_EMP.oi_personal INNER PER01_PERSONAL.oi_personal,
					PER02_PERSONAL_EMP.oi_empresa INNER ORG03_EMPRESAS.oi_empresa
				WHERE 
					PER01_PERSONAL.oi_usuario_sistema = {#PROXY:@etty}
					AND PER02_PERSONAL_EMP.oi_indic_activo=1   
				
			')/ROWS/ROW
				</qry:xquery>
				<qry:out>
					<qry:attribute name="oi_personal_emp" value="$r/@oi_personal_emp"/>
					<qry:attribute name="oi_personal" value="$r/@oi_personal"/>
					<qry:attribute name="legajo" value="$r/@e_numero_legajo"/>
					<qry:attribute name="nombre" value="$r/@d_ape_y_nom"/>
					<qry:attribute name="empresa" value="$r/@d_empresa"/>
					<qry:attribute name="oi_empresa" value="$r/@oi_empresa"/>
					<qry:attribute name="image" value="$r/@oi_foto"/>
					<qry:attribute name="flag" value="'1'"/>
				</qry:out>
			</qry:select>
		</qry:define>
		<doc:define name="LEGAJO"/>
		<doc:define name="RECIBOS"/>
		<qry:define declare="&lt;FILTRO excluir=&quot;&quot; oi_liquidacion=&quot;&quot; oi_personal_emp=&quot;11545&quot; periodo_liq=&quot;&quot; l_intervalo=&quot;&quot; periodo_desde=&quot;012008&quot; periodo_hasta=&quot;&quot; oi_empresa=&quot;&quot;&gt;&lt;LIQUIDACIONES /&gt;&lt;/FILTRO&gt;&#13;&#10;&#13;&#10;" name="FILTER">
			<qry:main doc="SOURCE">
				<qry:element name="ROWS">
					<qry:append-doc name="PARAMIN" doc-path="#SOURCE:."/>
					<qry:insert-select name="sql1" doc-path="#SOURCE:."/>
				</qry:element>
			</qry:main>
			<qry:select name="sql1" doc="SOURCE">
				<qry:xquery>
					for $r in SQL('
				SELECT 
					LIQ20_TOT_LIQ_PER.oi_tot_liq_per, LIQ97_PERSONAL_EMP.e_numero_legajo, 
					LIQ97_PERSONAL_EMP.d_ape_y_nom, LIQ19_EJECUCIONES.oi_ejecucion,
					LIQ99_LIQUIDACION.c_liquidacion, LIQ99_LIQUIDACION.d_titulo,
					LIQ20_TOT_LIQ_PER.f_cierre,LIQ20_TOT_LIQ_PER.n_totpag, LIQ99_LIQUIDACION.f_liquidacion,
					PER02_PERSONAL_EMP.oi_personal_emp,LIQ25_PERSONAL_LIQ.oi_personal_liq,
					LIQ99_LIQUIDACION.e_periodo, LIQ99_LIQUIDACION.f_pago, ORG03_EMPRESAS.oi_empresa,
					ORG03_EMPRESAS.c_empresa, ORG03_EMPRESAS.d_empresa,LIQ19_EJECUCIONES.oi_liquidacion 
				FROM
					LIQ25_PERSONAL_LIQ, LIQ19_EJECUCIONES, LIQ99_LIQUIDACION,
					LIQ99_RECIBOS, LIQ20_TOT_LIQ_PER, ORG03_EMPRESAS, 
					LIQ97_PERSONAL_EMP, PER02_PERSONAL_EMP, LIQ19_LIQUIDACION
				WHERE
					LIQ19_LIQUIDACION.oi_liquidacion = LIQ19_EJECUCIONES.oi_liquidacion AND
					LIQ25_PERSONAL_LIQ.oi_liquidacion = LIQ19_EJECUCIONES.oi_liquidacion AND
					LIQ19_EJECUCIONES.oi_liquidacion_ddo = LIQ99_LIQUIDACION.oi_liquidacion_ddo AND
					LIQ99_LIQUIDACION.oi_liquidacion_ddo = LIQ99_RECIBOS.oi_liquidacion_ddo AND
					LIQ99_RECIBOS.oi_tot_liq_per = LIQ20_TOT_LIQ_PER.oi_tot_liq_per AND
					LIQ20_TOT_LIQ_PER.oi_per_emp_ddo = LIQ97_PERSONAL_EMP.oi_per_emp_ddo AND
					LIQ97_PERSONAL_EMP.e_numero_legajo = PER02_PERSONAL_EMP.e_numero_legajo AND
					LIQ25_PERSONAL_LIQ.oi_personal_emp = PER02_PERSONAL_EMP.oi_personal_emp AND
					LIQ97_PERSONAL_EMP.c_empresa = ORG03_EMPRESAS.c_empresa AND
					LIQ99_LIQUIDACION.c_estado = \'F\' AND  
					ISNOTNULL(LIQ20_TOT_LIQ_PER.f_cierre) AND  
					LIQ19_LIQUIDACION.oi_tipo_liq != 6 AND
					PER02_PERSONAL_EMP.oi_personal_emp = {#SOURCE:@oi_personal_emp}               
					
					{%? (string(#SOURCE:@periodo_liq)!='') {%  AND LIQ99_LIQUIDACION.e_periodo = {%=$SOURCE/@periodo_liq%}  %} {% %} %}
					
					{%? (string(#SOURCE:@periodo_desde)!='') {%  AND LIQ99_LIQUIDACION.e_periodo &gt;= {%=$SOURCE/@periodo_desde%}  %} {% %} %}
					
					{%? (string(#SOURCE:@periodo_hasta)!='') {%  AND LIQ99_LIQUIDACION.e_periodo &lt;= {%=$SOURCE/@periodo_hasta%}  %} {% %} %}
					
					{%? (string(#SOURCE:@periodo_desde)!='' and string(#SOURCE:@periodo_hasta)!='')  {%  
								AND LIQ99_LIQUIDACION.e_periodo &lt;= {%=$SOURCE/@periodo_hasta%} 
								AND LIQ99_LIQUIDACION.e_periodo &lt;= {%=$SOURCE/@periodo_hasta%}  
					%} {% %} %}
					
				ORDER BY 
					f_liquidacion DESC
			')/ROWS/ROW
				</qry:xquery>
				<qry:out>
					<qry:element name="ROW">
						<qry:attribute name="id" value="$r/@oi_tot_liq_per"/>
						<qry:attribute name="oi_tot_liq_per" value="$r/@oi_tot_liq_per"/>
						<qry:attribute name="e_numero_legajo" value="$r/@e_numero_legajo"/>
						<qry:attribute name="d_ape_y_nom" value="$r/@d_ape_y_nom"/>
						<qry:attribute name="liquidacion" value="$r/@c_liquidacion + '-' + $r/@d_titulo"/>
						<qry:attribute name="empresa" value="$r/@c_empresa + '-' + $r/@d_empresa"/>
						<qry:attribute name="periodo" value="$r/@e_periodo +'01'"/>
						<qry:attribute name="periodo_pago" value="$r/@f_pago"/>
						<qry:attribute name="n_tot_pago" value="format_number($r/@n_totpag,'###,###,##0.00')"/>
						<qry:attribute name="f_cierre" value="$r/@f_cierre"/>
						<qry:attribute name="oi_personal_liq" value="$r/@oi_personal_liq"/>
						<qry:attribute name="oi_personal_emp" value="$r/@oi_personal_emp"/>
						<qry:attribute name="oi_empresa" value="$r/@oi_empresa"/>
						<qry:attribute name="oi_liquidacion" value="$r/@oi_liquidacion"/>
					</qry:element>
				</qry:out>
			</qry:select>
		</qry:define>
		<qry:define declare="&lt;FILTRO excluir=&quot;&quot; oi_liquidacion=&quot;&quot; oi_personal_emp=&quot;13544&quot; oi_personal_emp2=&quot;13544&quot; periodo_liq=&quot;&quot; l_intervalo=&quot;&quot; periodo_desde=&quot;&quot; periodo_hasta=&quot;&quot; oi_empresa=&quot;&quot;&gt;&lt;LIQUIDACIONES /&gt;&lt;/FILTRO&gt;" name="QRY_LEGAJO_PER">
			<qry:main doc="SOURCE">
				<qry:element name="PER">
					<qry:insert-select name="sql1" doc-path="#SOURCE:."/>
				</qry:element>
			</qry:main>
			<qry:select doc="SOURCE" name="sql1">
				<qry:xquery>
					for $r in SQL(' 
				SELECT 
					PER02_PERSONAL_EMP.oi_personal_emp,
					PER02_PERSONAL_EMP.e_numero_legajo,
					PER01_PERSONAL.oi_personal,
					PER01_PERSONAL.d_ape_y_nom,
					PER01_PERSONAL.oi_foto, 
					ORG03_EMPRESAS.oi_empresa,
					ORG03_EMPRESAS.d_empresa
				FROM
					PER02_PERSONAL_EMP, 
					PER01_PERSONAL,
					ORG03_EMPRESAS
				JOIN
					PER02_PERSONAL_EMP.oi_personal INNER PER01_PERSONAL.oi_personal,
					PER02_PERSONAL_EMP.oi_empresa INNER ORG03_EMPRESAS.oi_empresa
				WHERE 
					PER02_PERSONAL_EMP.oi_personal_emp = {#SOURCE:@oi_personal_emp2} 
				
			')/ROWS/ROW
				</qry:xquery>
				<qry:out>
					<qry:attribute name="oi_personal_emp" value="$r/@oi_personal_emp"/>
					<qry:attribute name="oi_personal" value="$r/@oi_personal"/>
					<qry:attribute name="legajo" value="$r/@e_numero_legajo"/>
					<qry:attribute name="nombre" value="$r/@d_ape_y_nom"/>
					<qry:attribute name="empresa" value="$r/@d_empresa"/>
					<qry:attribute name="oi_empresa" value="$r/@oi_empresa"/>
					<qry:attribute name="image" value="$r/@oi_foto"/>
					<qry:attribute name="flag" value="'1'"/>
				</qry:out>
			</qry:select>
		</qry:define>
		<doc:define name="RECIBOS_EMPTY"/>
		<qry:define name="FILTER_TOP" declare="&lt;FILTRO excluir=&quot;&quot; oi_liquidacion=&quot;&quot; oi_personal_emp=&quot;11545&quot; periodo_liq=&quot;&quot; l_intervalo=&quot;&quot; periodo_desde=&quot;012008&quot; periodo_hasta=&quot;&quot; oi_empresa=&quot;&quot;&gt;&lt;LIQUIDACIONES /&gt;&lt;/FILTRO&gt;&#13;&#10;&#13;&#10;">
			<qry:main doc="SOURCE">
				<qry:element name="ROWS">
					<qry:append-doc name="PARAMIN" doc-path="#SOURCE:."/>
					<qry:insert-select name="sql1" doc-path="#SOURCE:."/>
				</qry:element>
			</qry:main>
			<qry:select name="sql1" doc="SOURCE">
				<qry:xquery>
					for $r in SQL('
				MAXSIZE 5
				SELECT 
					LIQ20_TOT_LIQ_PER.oi_tot_liq_per, LIQ97_PERSONAL_EMP.e_numero_legajo, 
					LIQ97_PERSONAL_EMP.d_ape_y_nom, LIQ19_EJECUCIONES.oi_ejecucion,
					LIQ99_LIQUIDACION.c_liquidacion, LIQ99_LIQUIDACION.d_titulo,
					LIQ20_TOT_LIQ_PER.f_cierre,LIQ20_TOT_LIQ_PER.n_totpag, LIQ99_LIQUIDACION.f_liquidacion,
					PER02_PERSONAL_EMP.oi_personal_emp,LIQ25_PERSONAL_LIQ.oi_personal_liq,
					LIQ99_LIQUIDACION.e_periodo, LIQ99_LIQUIDACION.f_pago, ORG03_EMPRESAS.oi_empresa,
					ORG03_EMPRESAS.c_empresa, ORG03_EMPRESAS.d_empresa,LIQ19_EJECUCIONES.oi_liquidacion 
				FROM
					LIQ25_PERSONAL_LIQ, LIQ19_EJECUCIONES, LIQ99_LIQUIDACION,
					LIQ99_RECIBOS, LIQ20_TOT_LIQ_PER, ORG03_EMPRESAS, 
					LIQ97_PERSONAL_EMP, PER02_PERSONAL_EMP, LIQ19_LIQUIDACION
				WHERE
					LIQ19_LIQUIDACION.oi_liquidacion = LIQ19_EJECUCIONES.oi_liquidacion AND
					LIQ25_PERSONAL_LIQ.oi_liquidacion = LIQ19_EJECUCIONES.oi_liquidacion AND
					LIQ19_EJECUCIONES.oi_liquidacion_ddo = LIQ99_LIQUIDACION.oi_liquidacion_ddo AND
					LIQ99_LIQUIDACION.oi_liquidacion_ddo = LIQ99_RECIBOS.oi_liquidacion_ddo AND
					LIQ99_RECIBOS.oi_tot_liq_per = LIQ20_TOT_LIQ_PER.oi_tot_liq_per AND
					LIQ20_TOT_LIQ_PER.oi_per_emp_ddo = LIQ97_PERSONAL_EMP.oi_per_emp_ddo AND
					LIQ97_PERSONAL_EMP.e_numero_legajo = PER02_PERSONAL_EMP.e_numero_legajo AND
					LIQ25_PERSONAL_LIQ.oi_personal_emp = PER02_PERSONAL_EMP.oi_personal_emp AND
					LIQ97_PERSONAL_EMP.c_empresa = ORG03_EMPRESAS.c_empresa AND
					LIQ99_LIQUIDACION.c_estado = \'F\' AND  
					ISNOTNULL(LIQ20_TOT_LIQ_PER.f_cierre) AND  
					LIQ19_LIQUIDACION.oi_tipo_liq != 6 AND
					PER02_PERSONAL_EMP.oi_personal_emp = {#SOURCE:@oi_personal_emp}               
					
					{%? (string(#SOURCE:@periodo_liq)!='') {%  AND LIQ99_LIQUIDACION.e_periodo = {%=$SOURCE/@periodo_liq%}  %} {% %} %}
					
					{%? (string(#SOURCE:@periodo_desde)!='') {%  AND LIQ99_LIQUIDACION.e_periodo &gt;= {%=$SOURCE/@periodo_desde%}  %} {% %} %}
					
					{%? (string(#SOURCE:@periodo_hasta)!='') {%  AND LIQ99_LIQUIDACION.e_periodo &lt;= {%=$SOURCE/@periodo_hasta%}  %} {% %} %}
					
					{%? (string(#SOURCE:@periodo_desde)!='' and string(#SOURCE:@periodo_hasta)!='')  {%  
								AND LIQ99_LIQUIDACION.e_periodo &lt;= {%=$SOURCE/@periodo_hasta%} 
								AND LIQ99_LIQUIDACION.e_periodo &lt;= {%=$SOURCE/@periodo_hasta%}  
					%} {% %} %}
					
				ORDER BY 
					f_liquidacion DESC
			')/ROWS/ROW
				</qry:xquery>
				<qry:out>
					<qry:element name="ROW">
						<qry:attribute name="id" value="$r/@oi_tot_liq_per"/>
						<qry:attribute name="oi_tot_liq_per" value="$r/@oi_tot_liq_per"/>
						<qry:attribute name="e_numero_legajo" value="$r/@e_numero_legajo"/>
						<qry:attribute name="d_ape_y_nom" value="$r/@d_ape_y_nom"/>
						<qry:attribute name="liquidacion" value="$r/@c_liquidacion + '-' + $r/@d_titulo"/>
						<qry:attribute name="empresa" value="$r/@c_empresa + '-' + $r/@d_empresa"/>
						<qry:attribute name="periodo" value="$r/@e_periodo +'01'"/>
						<qry:attribute name="periodo_pago" value="$r/@f_pago"/>
						<qry:attribute name="n_tot_pago" value="format_number($r/@n_totpag,'###,###,##0.00')"/>
						<qry:attribute name="f_cierre" value="$r/@f_cierre"/>
						<qry:attribute name="oi_personal_liq" value="$r/@oi_personal_liq"/>
						<qry:attribute name="oi_personal_emp" value="$r/@oi_personal_emp"/>
						<qry:attribute name="oi_empresa" value="$r/@oi_empresa"/>
						<qry:attribute name="oi_liquidacion" value="$r/@oi_liquidacion"/>
					</qry:element>
				</qry:out>
			</qry:select>
		</qry:define>
	</flow:declare>
	<flow:main doc="SOURCE">
		<flow:action name="initialize">
			<flow:open-form doc-path="#FILTERDATA:" mode="FILTER" form-class="NucleusRH.Base.Liquidacion.Recibos.Crystal.filter.form"/>
		</flow:action>
		<flow:action name="initialize_recibo">
			<flow:log text="JP_SOURCE2" text-path="#SOURCE:"/>
			<doc:load-qry output-doc="PARAMETERS" input-doc-path="#SOURCE:" qry="QRY_RECIBOS_LIQ"/>
			<flow:exec-method out-attr-path="#SOURCE:@batch-id" out-type="String" priority="5" method="execute" class="Nomad.NSystem.Crystal.NmdCrystalBatch">
				<flow:param value="NucleusRH.Base.Liquidacion.Recibo\Recibo.def" name="report-name" mode="in" type="Nomad.NSystem.String"/>
				<flow:param doc="PARAMETERS" name="report-param" mode="in" type="Nomad.NSystem.Object"/>
				<flow:param attr-path="#FILTERDATA:@file-name" name="report-file" mode="in" type="Nomad.NSystem.String"/>
			</flow:exec-method>
			<flow:open-form mode="BATCH" form-class="Nomad.base.batch.report.form" doc-path="#SOURCE:"/>
		</flow:action>
		<flow:action name="initialize_portal">
			<doc:load-qry output-doc="LEGAJO" input-doc-path="#LEGAJO:" qry="QRY_LEGAJO"/>
			<flow:attach-doc doc-path="#LEGAJO:" attach-id="LEGAJO"/>
			<flow:open-form doc-path="#FILTERLIQ:" mode="FILTER" form-class="NucleusRH.Base.Liquidacion.Recibos.FiltroPortal.form"/>
		</flow:action>
	</flow:main>
	<flow:form name="NucleusRH.Base.Liquidacion.Recibos.Crystal.filter.form:FILTER" parent-doc="PARENTSOURCE" doc="SOURCE" mode="FILTER" form-class="NucleusRH.Base.Liquidacion.Recibos.Crystal.filter.form">
		<flow:action name="BACK">
			<flow:close-form/>
		</flow:action>
		<flow:action name="ACCEPT">
			<flow:call-action action="Save-FILTER"/>
			<flow:log text="ppfilterdata" text-path="#FILTERDATA:"/>
			<doc:load-qry output-doc="PARAMETERS" input-doc-path="#FILTERDATA:" qry="QRY_RECIBOS_LIQ"/>
			<flow:log text="ppparam" text-path="#PARAMETERS:"/>
			<flow:call-action else="NODATA" eq="1" if="#PARAMETERS:@flag" action="REPORT"/>
		</flow:action>
		<flow:action name="REPORT">
			<flow:exec-method out-attr-path="#FILTERDATA:@batch-id" out-type="String" priority="5" method="execute" class="Nomad.NSystem.Crystal.NmdCrystalBatch">
				<flow:param value="NucleusRH.Base.Liquidacion.Recibo\Recibo.def" name="report-name" mode="in" type="Nomad.NSystem.String"/>
				<flow:param doc="PARAMETERS" name="report-param" mode="in" type="Nomad.NSystem.Object"/>
				<flow:param attr-path="#FILTERDATA:@file-name" name="report-file" mode="in" type="Nomad.NSystem.String"/>
			</flow:exec-method>
			<flow:open-form mode="BATCH" form-class="Nomad.base.batch.report.form" doc-path="#FILTERDATA:"/>
		</flow:action>
		<flow:action name="NODATA">
			<flow:open-form form-class="NucleusRH.Base.Liquidacion.Recibos.NODATA.form" mode="SHOW" doc-path="#FILTERDATA:"/>
		</flow:action>
		<flow:action name="Load-FILTER">
			<flow:load-user-data doc="FILTERDATA" name="FILTER-NucleusRH.Base.Liquidacion.Recibos_sueldo"/>
		</flow:action>
		<flow:action name="Save-FILTER">
			<flow:save-user-data doc-path="#FILTERDATA:" name="FILTER-NucleusRH.Base.Liquidacion.Recibos_sueldo"/>
		</flow:action>
		<flow:action name="on-open">
			<flow:log text-path="#SOURCE:" text="ppopen"/>
			<flow:call-action action="Load-FILTER"/>
		</flow:action>
	</flow:form>
	<flow:form mode="SHOW" doc="SOURCE" name="NucleusRH.Base.Liquidacion.Recibos.NODATA.form:SHOW" form-class="NucleusRH.Base.Liquidacion.Recibos.NODATA.form">
		<flow:action name="BACK">
			<flow:close-form/>
		</flow:action>
	</flow:form>
	<flow:form name="NucleusRH.Base.Liquidacion.Recibos.FiltroPortal.form:FILTER" parent-doc="PARENTSOURCE" doc="SOURCE" mode="FILTER" form-class="NucleusRH.Base.Liquidacion.Recibos.FiltroPortal.form">
		<flow:action name="BACK">
			<flow:close-form/>
		</flow:action>
		<flow:action name="ACCEPT">
			<flow:call-action action="Save-FILTER"/>
			<doc:set-attribute from-attr-path="#LEGAJO:@oi_empresa" to-attr-path="#SOURCE:@oi_empresa"/>
			<doc:load-qry output-doc="PARAMLIQS" input-doc-path="#FILTERLIQ:" qry="QRY_PARAM_LIQ"/>
			<flow:call-action action="REPORT"/>
		</flow:action>
		<flow:action name="REPORT">
			<flow:exec-method out-attr-path="#FILTERDATA:@batch-id" out-type="String" priority="5" method="execute" class="Nomad.NSystem.Crystal.NmdCrystalBatch">
				<flow:param value="NucleusRH.Base.Liquidacion.Recibo\Recibo.def" name="report-name" mode="in" type="Nomad.NSystem.String"/>
				<flow:param doc="PARAMLIQS" name="report-param" mode="in" type="Nomad.NSystem.Object"/>
				<flow:param attr-path="#FILTERDATA:@file-name" name="report-file" mode="in" type="Nomad.NSystem.String"/>
			</flow:exec-method>
			<flow:open-form doc-path="#FILTERDATA:" mode="BATCH" form-class="Nomad.base.batch.report.form"/>
		</flow:action>
		<flow:action name="Load-FILTER">
			<flow:load-user-data name="FILTER-NucleusRH.Base.Liquidacion.Recibos.FiltroPortal.form" doc="SOURCE"/>
		</flow:action>
		<flow:action name="Save-FILTER">
			<flow:save-user-data name="FILTER-NucleusRH.Base.Liquidacion.Recibos.FiltroPortal.form" doc-path="#SOURCE:"/>
		</flow:action>
		<flow:action name="on-open">
			<flow:call-action action="Load-FILTER"/>
			<flow:call-action action="NODATA" eq="0" if="#LEGAJO:@flag"/>
			<flow:call-action action="CARGAR_TOP"/>
		</flow:action>
		<flow:action name="NODATA">
			<flow:open-form form-class="NucleusRH.Base.Liquidacion.Recibos.NOLEGAJO.form" mode="SHOW" doc-path="#FILTERLIQ:"/>
		</flow:action>
		<flow:action name="CARGAR">
			<doc:load-qry input-doc-path="#SOURCE:" output-doc="RECIBOS" qry="FILTER"/>
			<flow:attach-doc doc-path="#RECIBOS:" attach-id="RS"/>
		</flow:action>
		<flow:action name="LOAD_LEGAJO">
			<doc:load-qry qry="QRY_LEGAJO_PER" input-doc-path="#SOURCE:" output-doc="LEGAJO"/>
			<flow:attach-doc doc-path="#LEGAJO:" attach-id="LEGAJO"/>
			<flow:call-action action="CARGAR_TOP"/>
		</flow:action>
		<flow:action name="CARGAR_TOP">
			<doc:load-qry qry="FILTER_TOP" input-doc-path="#LEGAJO:" output-doc="RECIBOS"/>
			<flow:attach-doc doc-path="#RECIBOS:" attach-id="RS"/>
		</flow:action>
	</flow:form>
	<flow:form form-class="NucleusRH.Base.Liquidacion.Recibos.NOLEGAJO.form" name="NucleusRH.Base.Liquidacion.Recibos.NOLEGAJO.form:SHOW" mode="SHOW" doc="SOURCE">
		<flow:action name="BACK">
			<flow:close-form next-action="BACK"/>
		</flow:action>
	</flow:form>
</flow:flow>
