<flow:flow name="NucleusRH.Base.Liquidacion.Recibos.LegajoLiq.guia" xmlns:flow="nomad_engine.form" xmlns:qry="nomad_engine.form" xmlns:doc="nomad_engine.form">
	<flow:main doc="SOURCE">
		<flow:action name="HELP">
			<doc:load-qry qry="HELP" input-doc-path="#SOURCE:" output-doc="RS"/>
			<flow:open-form form-class="NucleusRH.Base.Liquidacion.Recibos.LegajoLiq.LM.guia.form" mode="SHOW" doc-path="#RS:" parent-doc-path="#SOURCE:"/>
		</flow:action>
	</flow:main>
	<flow:declare>
		<doc:define name="RS"/>
		<doc:define name="OUT"/>
		<qry:define declare="&lt;helper-mess liq=&quot;1&quot;&gt;&lt;rows /&gt;&lt;/helper-mess&gt;" name="HELP">
			<qry:main doc="SOURCE">
				<qry:element name="DATOS">
					<qry:attribute name="liq" value="#SOURCE:helper-mess/@liq" type="Nomad.NSystem.Int"/>
					<qry:element name="ROWS">
						<qry:insert-select doc-path="#SOURCE:" name="RS1"/>
						<qry:insert-select doc-path="#SOURCE:" name="RS2"/>
					</qry:element>
				</qry:element>
			</qry:main>
			<qry:select name="RS1" doc="SOURCE">
				<qry:xquery>
					for $r in sql('
				SELECT LIQ25_PERSONAL_LIQ.oi_personal_liq,
				LIQ25_PERSONAL_LIQ.oi_personal_emp, 
				PER02_PERSONAL_EMP.e_numero_legajo, 
				PER01_PERSONAL.d_ape_y_nom
        FROM PER02_PERSONAL_EMP, 
        PER01_PERSONAL, 
        LIQ25_PERSONAL_LIQ, 
        LIQ07_PERSONAL
        JOIN PER02_PERSONAL_EMP.oi_personal INNER PER01_PERSONAL.oi_personal,
        LIQ07_PERSONAL.oi_personal_emp INNER PER02_PERSONAL_EMP.oi_personal_emp,
        LIQ25_PERSONAL_LIQ.oi_personal_emp INNER PER02_PERSONAL_EMP.oi_personal_emp
        WHERE LIQ25_PERSONAL_LIQ.oi_liquidacion = {#SOURCE:helper-mess/@liq} 
        {%? (string(#SOURCE:helper-mess/rows/row/@oi_personal_liq)!='') {%  AND LIQ25_PERSONAL_LIQ.oi_personal_liq in ({%=string(#SOURCE:helper-mess/rows/row/@oi_personal_liq) %}) %} {% AND 1 = 2 %} %}
       ')/ROWS/ROW
				</qry:xquery>
				<qry:out>
					<qry:element name="ROW">
						<qry:attribute name="oi_personal_liq" value="$r/@oi_personal_liq" type="Nomad.NSystem.Int"/>
						<qry:attribute name="id" value="$r/@oi_personal_emp" type="Nomad.NSystem.Int"/>
						<qry:attribute name="value" value="$r/@oi_personal_emp" type="Nomad.NSystem.Int"/>
						<qry:attribute name="code" value="$r/@e_numero_legajo" type="Nomad.NSystem.String"/>
						<qry:attribute name="text" value="$r/@d_ape_y_nom" type="Nomad.NSystem.String"/>
						<qry:attribute name="check" value="1" type="Nomad.NSystem.Boolean"/>
					</qry:element>
				</qry:out>
			</qry:select>
			<qry:select name="RS2" doc="SOURCE">
				<qry:xquery>
					for $r in sql('
				SELECT LIQ25_PERSONAL_LIQ.oi_personal_liq,
				LIQ25_PERSONAL_LIQ.oi_personal_emp, 
				PER02_PERSONAL_EMP.e_numero_legajo, 
				PER01_PERSONAL.d_ape_y_nom
        FROM PER02_PERSONAL_EMP, 
        PER01_PERSONAL, 
        LIQ25_PERSONAL_LIQ, 
        LIQ07_PERSONAL
        JOIN PER02_PERSONAL_EMP.oi_personal INNER PER01_PERSONAL.oi_personal,
        LIQ07_PERSONAL.oi_personal_emp INNER PER02_PERSONAL_EMP.oi_personal_emp,
        LIQ25_PERSONAL_LIQ.oi_personal_emp INNER PER02_PERSONAL_EMP.oi_personal_emp
        WHERE LIQ25_PERSONAL_LIQ.oi_liquidacion = {#SOURCE:helper-mess/@liq} 
        {%? (string(#SOURCE:helper-mess/rows/row/@oi_personal_liq)!='') {%  AND LIQ25_PERSONAL_LIQ.oi_personal_liq not in ({%=string(#SOURCE:helper-mess/rows/row/@oi_personal_liq) %}) %} {% AND 1 = 1 %} %}
       ')/ROWS/ROW
				</qry:xquery>
				<qry:out>
					<qry:element name="ROW">
						<qry:attribute name="oi_personal_liq" value="$r/@oi_personal_liq" type="Nomad.NSystem.Int"/>
						<qry:attribute name="id" value="$r/@oi_personal_emp" type="Nomad.NSystem.Int"/>
						<qry:attribute name="value" value="$r/@oi_personal_emp" type="Nomad.NSystem.Int"/>
						<qry:attribute name="code" value="$r/@e_numero_legajo" type="Nomad.NSystem.String"/>
						<qry:attribute name="text" value="$r/@d_ape_y_nom" type="Nomad.NSystem.String"/>
						<qry:attribute name="check" value="0" type="Nomad.NSystem.Boolean"/>
					</qry:element>
				</qry:out>
			</qry:select>
		</qry:define>
		<qry:define declare="&lt;DATOS liq=&quot;1&quot;&gt;&#13;&#10;&#9;&lt;ROWS&gt;&#13;&#10;&#9;&#9;&lt;ROW check=&quot;0&quot; text=&quot;Camarasa, Daniel&quot; code=&quot;15001228&quot; value=&quot;221&quot; id=&quot;221&quot; oi_personal_liq=&quot;8&quot;/&gt;&#13;&#10;&#9;&#9;&lt;ROW check=&quot;0&quot; text=&quot;RIZZO, JUAN PABLO&quot; code=&quot;2&quot; value=&quot;232&quot; id=&quot;232&quot; oi_personal_liq=&quot;4&quot;/&gt;&#13;&#10;&#9;&#9;&lt;ROW check=&quot;1&quot; text=&quot;CRAPACHER, ATILIO PEDRO&quot; code=&quot;3&quot; value=&quot;233&quot; id=&quot;233&quot; oi_personal_liq=&quot;7&quot;/&gt;&#13;&#10;&#9;&#9;&lt;ROW check=&quot;0&quot; text=&quot;BLAJOS, MARIO CONSTANTINO&quot; code=&quot;4&quot; value=&quot;234&quot; id=&quot;234&quot; oi_personal_liq=&quot;6&quot;/&gt;&#13;&#10;&#9;&#9;&lt;ROW check=&quot;1&quot; text=&quot;AVILA, JUSTO LORENZO&quot; code=&quot;5&quot; value=&quot;235&quot; id=&quot;235&quot; oi_personal_liq=&quot;1&quot;/&gt;&#13;&#10;&#9;&#9;&lt;ROW check=&quot;0&quot; text=&quot;CEREDA, CARLOS MARTIN&quot; code=&quot;8&quot; value=&quot;239&quot; id=&quot;239&quot; oi_personal_liq=&quot;3&quot;/&gt;&#13;&#10;&#9;&lt;/ROWS&gt;&#13;&#10;&lt;/DATOS&gt;&#13;&#10;" name="PRUEBA">
			<qry:main doc="SOURCE">
				<qry:element name="helper-mess">
					<qry:attribute name="liq" value="#SOURCE:DATOS/@liq" type="Nomad.NSystem.Int"/>
					<qry:element name="rows">
						<qry:insert-select doc-path="#SOURCE:" name="RS1"/>
					</qry:element>
				</qry:element>
			</qry:main>
			<qry:select name="RS1" doc="SOURCE">
				<qry:xquery>
					for $r in #SOURCE:DATOS/ROWS/ROW[@check=1]
				</qry:xquery>
				<qry:out>
					<qry:element name="row">
						<qry:attribute name="oi_personal_liq" value="$r/@oi_personal_liq" type="Nomad.NSystem.Int"/>
						<qry:attribute name="code" value="$r/@code" type="Nomad.NSystem.String"/>
						<qry:attribute name="text" value="$r/@text" type="Nomad.NSystem.String"/>
					</qry:element>
				</qry:out>
			</qry:select>
		</qry:define>
	</flow:declare>
	<flow:form name="NucleusRH.Base.Liquidacion.Recibos.LegajoLiq.LM.guia.form:SHOW" form-class="NucleusRH.Base.Liquidacion.Recibos.LegajoLiq.LM.guia.form" mode="SHOW" doc="SOURCE" parent-doc="INVAL">
		<flow:action name="on-show"/>
		<flow:action name="ACCEPT">
			<doc:load-qry qry="PRUEBA" input-doc-path="#SOURCE:" output-doc="OUT"/>
			<flow:exit-flow return-path="#OUT:"/>
		</flow:action>
		<flow:action name="CANCEL">
			<flow:exit-flow return-path="#INVAL:"/>
		</flow:action>
	</flow:form>
</flow:flow>
