<flow:flow extends="Nomad.simple.guia.flow" xmlns:doc="nomad_engine.form" xmlns:qry="nomad_engine.form" xmlns:flow="nomad_engine.form" name="NucleusRH.Base.Personal.LegajoEmpresa.PERSONAL_EMP.guia">
	<flow:info label="Flow guia para NucleusRH.Base.Personal.LegajoEmpresa.PERSONAL_EMP"/>
	<flow:main doc="SOURCE">
		<flow:action name="OPEN-GUIA">
			<flow:open-form form-class="NucleusRH.Base.Liquidacion.Recibos.Legajo.guia.form" parent-doc-path="#SOURCE:" doc-path="#SOURCE:" mode="SHOW"/>
		</flow:action>
		<flow:action name="X2C">
			<flow:log text="SOURCE123" text-path="#SOURCE:"/>
			<doc:load-qry output-doc="RS" input-doc-path="#SOURCE:" qry="X2C"/>
			<flow:exit-flow return-path="#RS:"/>
		</flow:action>
	</flow:main>
	<flow:declare>
		<doc:define name="RS"/>
		<qry:define declare="&lt;helper-mess liq=&quot;1&quot; code=&quot;2&quot;/&gt;" name="C2X">
			<qry:main doc="SOURCE">
				<qry:element name="ROW">
					<qry:attribute type="Nomad.NSystem.Int" value="#SOURCE:helper-mess/@liq" name="liq"/>
					<qry:insert-select doc-path="#SOURCE:" name="RS1"/>
				</qry:element>
			</qry:main>
			<qry:select doc="SOURCE" name="RS1">
				<qry:xquery>
					for $r in sql('
					SELECT LIQ25_PERSONAL_LIQ.oi_personal_liq,
					PER02_PERSONAL_EMP.oi_personal_emp,
					PER02_PERSONAL_EMP.e_numero_legajo, 
					PER01_PERSONAL.d_ape_y_nom
        	FROM PER02_PERSONAL_EMP, 
        	PER01_PERSONAL, 
        	LIQ25_PERSONAL_LIQ, 
        	LIQ07_PERSONAL
        	JOIN PER02_PERSONAL_EMP.oi_personal INNER PER01_PERSONAL.oi_personal,
        	LIQ07_PERSONAL.oi_personal_emp INNER PER02_PERSONAL_EMP.oi_personal_emp,
        	PER02_PERSONAL_EMP.oi_personal_emp INNER LIQ25_PERSONAL_LIQ.oi_personal_emp 
        	WHERE LIQ25_PERSONAL_LIQ.oi_liquidacion = {#SOURCE:helper-mess/@liq}
        	AND PER02_PERSONAL_EMP.e_numero_legajo ={#SOURCE:helper-mess/@CODE}
       ')/ROWS/ROW
				</qry:xquery>
				<qry:out>
					<qry:attribute type="Nomad.NSystem.Int" value="$r/@oi_personal_liq" name="id"/>
					<qry:attribute type="Nomad.NSystem.Int" value="$r/@oi_personal_liq" name="value"/>
					<qry:attribute type="Nomad.NSystem.Int" value="$r/@e_numero_legajo" name="code"/>
					<qry:attribute type="Nomad.NSystem.String" value="$r/@d_ape_y_nom" name="text"/>
				</qry:out>
			</qry:select>
		</qry:define>
		<qry:define declare="&lt;helper-mess liq=&quot;1&quot;/&gt;" name="HELP">
			<qry:main doc="SOURCE">
				<qry:element name="ROWS">
					<qry:insert-select doc-path="#SOURCE:" name="RS1"/>
				</qry:element>
			</qry:main>
			<qry:select doc="SOURCE" name="RS1">
				<qry:xquery>
					for $r in sql('
					SELECT  LIQ25_PERSONAL_LIQ.oi_personal_liq,
					PER02_PERSONAL_EMP.oi_personal_emp,
					PER02_PERSONAL_EMP.e_numero_legajo, 
					PER01_PERSONAL.d_ape_y_nom
        	FROM PER02_PERSONAL_EMP, 
        	PER01_PERSONAL, 
        	LIQ25_PERSONAL_LIQ, 
        	LIQ07_PERSONAL
        	JOIN PER02_PERSONAL_EMP.oi_personal INNER PER01_PERSONAL.oi_personal,
        	LIQ07_PERSONAL.oi_personal_emp INNER PER02_PERSONAL_EMP.oi_personal_emp,
        	PER02_PERSONAL_EMP.oi_personal_emp INNER LIQ25_PERSONAL_LIQ.oi_personal_emp 
        	WHERE LIQ25_PERSONAL_LIQ.oi_liquidacion = {#SOURCE:helper-mess/@liq}
				')/ROWS/ROW
				</qry:xquery>
				<qry:out>
					<qry:element name="ROW">
						<qry:attribute type="Nomad.NSystem.Int" value="$r/@oi_personal_liq" name="id"/>
						<qry:attribute type="Nomad.NSystem.Int" value="$r/@oi_personal_liq" name="value"/>
						<qry:attribute type="Nomad.NSystem.Int" value="$r/@e_numero_legajo" name="code"/>
						<qry:attribute type="Nomad.NSystem.String" value="$r/@d_ape_y_nom" name="text"/>
						<qry:attribute type="Nomad.NSystem.Int" value="#SOURCE:helper-mess/@liq" name="liq"/>
					</qry:element>
				</qry:out>
			</qry:select>
		</qry:define>
		<qry:define declare="&lt;helper-mess liq=&quot;1&quot; code=&quot;2&quot; id=&quot;4&quot; text=&quot;RIZZO, JUAN PABLO&quot; /&gt;" name="X2C">
			<qry:main doc="SOURCE">
				<qry:element name="ROW">
					<qry:attribute type="Nomad.NSystem.Int" value="#SOURCE:helper-mess/@liq" name="liq"/>
					<qry:insert-select doc-path="#SOURCE:" name="RS1"/>
				</qry:element>
			</qry:main>
			<qry:select doc="SOURCE" name="RS1">
				<qry:xquery>
					for $r in sql('
					SELECT  LIQ25_PERSONAL_LIQ.oi_personal_liq,
					PER02_PERSONAL_EMP.oi_personal_emp,
					PER02_PERSONAL_EMP.e_numero_legajo, 
					PER01_PERSONAL.d_ape_y_nom
        	FROM PER02_PERSONAL_EMP, 
        	PER01_PERSONAL, 
        	LIQ25_PERSONAL_LIQ, 
        	LIQ07_PERSONAL
        	JOIN PER02_PERSONAL_EMP.oi_personal INNER PER01_PERSONAL.oi_personal,
        	LIQ07_PERSONAL.oi_personal_emp INNER PER02_PERSONAL_EMP.oi_personal_emp,
        	PER02_PERSONAL_EMP.oi_personal_emp INNER LIQ25_PERSONAL_LIQ.oi_personal_emp 
        	WHERE LIQ25_PERSONAL_LIQ.oi_liquidacion = {#SOURCE:helper-mess/@liq}
        	AND LIQ25_PERSONAL_LIQ.oi_personal_liq = {#SOURCE:helper-mess/@id}
       ')/ROWS/ROW
				</qry:xquery>
				<qry:out>
					<qry:attribute type="Nomad.NSystem.Int" value="$r/@oi_personal_liq" name="oi_personal_liq"/>
					<qry:attribute type="Nomad.NSystem.Int" value="$r/@oi_personal_liq" name="id"/>
					<qry:attribute type="Nomad.NSystem.Int" value="$r/@oi_personal_liq" name="value"/>
					<qry:attribute type="Nomad.NSystem.Int" value="$r/@e_numero_legajo" name="code"/>
					<qry:attribute type="Nomad.NSystem.String" value="$r/@d_ape_y_nom" name="text"/>
				</qry:out>
			</qry:select>
		</qry:define>
	</flow:declare>
	<flow:form extends="Nomad.simple.guia.form:SHOW" name="NucleusRH.Base.Liquidacion.Recibos.Legajo.guia.form:SHOW" parent-doc="INVAL" doc="SOURCE" mode="SHOW" form-class="NucleusRH.Base.Liquidacion.Recibos.Legajo.guia.form"/>
</flow:flow>
