<flow:flow default_action="HELP" name="NucleusRH.Base.Liquidacion.Recibos.RECIBO.LM.guia.flow" extends="Nomad.simple.guia.flow" xmlns:doc="nomad_engine.form" xmlns:qry="nomad_engine.form" xmlns:flow="nomad_engine.form">
	<flow:info label="Flow guia para NucleusRH.Base.Liquidacion.Recibos.RECIBO"/>
	<flow:main doc="SOURCE">
		<flow:action name="OPEN-GUIA">
			<flow:open-form form-class="NucleusRH.Base.Liquidacion.Recibos.RECIBOS.guia.form" parent-doc-path="#SOURCE:" doc-path="#SOURCE:" mode="SHOW"/>
		</flow:action>
	</flow:main>
	<flow:declare>
		<qry:define declare="&lt;helper-mess ID=&quot;2484&quot; oi_liquidacion_ddo=&quot;289&quot; /&gt;" name="X2C">
			<qry:main doc="SOURCE">
				<qry:append-doc doc-path="#SOURCE:helper-mess" name="INDOC"/>
				<qry:element name="ROW">
					<qry:insert-select doc-path="#SOURCE:" name="RS1"/>
				</qry:element>
			</qry:main>
			<qry:select doc="SOURCE" name="RS1">
				<qry:xquery>
					for $r in sql('
			SELECT 
				LIQ97_PERSONAL_EMP.e_numero_legajo as ID,
				LIQ97_PERSONAL_EMP.d_ape_y_nom as TEXT
			FROM 
				LIQ20_TOT_LIQ_PER, LIQ97_PERSONAL_EMP, LIQ99_RECIBOS  
			JOIN
				LIQ20_TOT_LIQ_PER.oi_tot_liq_per INNER LIQ99_RECIBOS.oi_tot_liq_per,
				LIQ20_TOT_LIQ_PER.oi_per_emp_ddo INNER LIQ97_PERSONAL_EMP.oi_per_emp_ddo
			WHERE 
				LIQ99_RECIBOS.oi_liquidacion_ddo={#INDOC:@oi_liquidacion_ddo} and
				LIQ97_PERSONAL_EMP.e_numero_legajo={#INDOC:@id}
				')/ROWS/ROW
				</qry:xquery>
				<qry:out>
					<qry:attribute value="$r/@ID" name="id"/>
					<qry:attribute value="$r/@ID" name="value"/>
					<qry:attribute value="$r/@ID" name="code"/>
					<qry:attribute value="$r/@TEXT" name="text"/>
					<qry:attribute value="$r/@INTERFACE" name="interface"/>
				</qry:out>
			</qry:select>
		</qry:define>
		<qry:define declare="&lt;helper-mess code=&quot;2484&quot; oi_liquidacion_ddo=&quot;289&quot; /&gt;" name="C2X">
			<qry:main doc="SOURCE">
				<qry:append-doc doc-path="#SOURCE:helper-mess" name="INDOC"/>
				<qry:element name="ROW">
					<qry:insert-select doc-path="#SOURCE:" name="RS1"/>
				</qry:element>
			</qry:main>
			<qry:select doc="SOURCE" name="RS1">
				<qry:xquery>
					for $r in sql('
			SELECT 
				LIQ97_PERSONAL_EMP.e_numero_legajo as ID, 
				LIQ97_PERSONAL_EMP.d_ape_y_nom as TEXT	
			FROM 
				LIQ20_TOT_LIQ_PER, LIQ97_PERSONAL_EMP, LIQ99_RECIBOS  
			JOIN
				LIQ20_TOT_LIQ_PER.oi_tot_liq_per INNER LIQ99_RECIBOS.oi_tot_liq_per,
				LIQ20_TOT_LIQ_PER.oi_per_emp_ddo INNER LIQ97_PERSONAL_EMP.oi_per_emp_ddo
			WHERE 
				LIQ99_RECIBOS.oi_liquidacion_ddo={#INDOC:@oi_liquidacion_ddo} and 
				LIQ97_PERSONAL_EMP.e_numero_legajo={#INDOC:@code} ')/ROWS/ROW
				</qry:xquery>
				<qry:out>
					<qry:attribute value="$r/@ID" name="id"/>
					<qry:attribute value="$r/@ID" name="value"/>
					<qry:attribute value="$r/@ID" name="code"/>
					<qry:attribute value="$r/@TEXT" name="text"/>
				</qry:out>
			</qry:select>
		</qry:define>
		<qry:define declare="&lt;helper-mess oi_liquidacion_ddo=&quot;302&quot; /&gt;" name="HELP">
			<qry:main doc="SOURCE">
				<qry:append-doc doc-path="#SOURCE:helper-mess" name="INDOC"/>
				<qry:element name="ROWS">
					<qry:insert-select doc-path="#SOURCE:" name="RS1"/>
				</qry:element>
			</qry:main>
			<qry:select doc="SOURCE" name="RS1">
				<qry:xquery>
					for $r in sql('
			SELECT 
				LIQ97_PERSONAL_EMP.e_numero_legajo as ID, 
				LIQ97_PERSONAL_EMP.d_ape_y_nom as TEXT
			FROM 
				LIQ20_TOT_LIQ_PER, LIQ97_PERSONAL_EMP, LIQ99_RECIBOS
			JOIN
				LIQ20_TOT_LIQ_PER.oi_tot_liq_per INNER LIQ99_RECIBOS.oi_tot_liq_per,
				LIQ20_TOT_LIQ_PER.oi_per_emp_ddo INNER LIQ97_PERSONAL_EMP.oi_per_emp_ddo
			WHERE 
				LIQ99_RECIBOS.oi_liquidacion_ddo={#INDOC:@oi_liquidacion_ddo}
			ORDER BY ID asc')/ROWS/ROW
				</qry:xquery>
				<qry:out>
					<qry:element name="ROW">
						<qry:attribute value="$r/@ID" name="id"/>
						<qry:attribute value="$r/@ID" name="value"/>
						<qry:attribute value="$r/@ID" name="code"/>
						<qry:attribute value="$r/@TEXT" name="text"/>
					</qry:element>
				</qry:out>
			</qry:select>
		</qry:define>
	</flow:declare>
	<flow:form form-class="NucleusRH.Base.Liquidacion.Recibos.RECIBOS.guia.form" name="NucleusRH.Base.Liquidacion.Recibos.RECIBOS.guia.form:SHOW" extends="nomad.simple.guia.form:SHOW" parent-doc="INVAL" doc="SOURCE" mode="SHOW"/>
</flow:flow>
