<flow:flow xmlns:flow="nomad_engine.flow" xmlns:doc="nomad_engine.doc" default_action="initialize" name="EditParameters">
	<flow:info label="EditParameters"/>
	<flow:declare>
		<doc:define name="DATA">
			<PARAMS>
				<PARAM c_modulo="LIQ" c_parametro="ConFecEgreso" d_clase="RepEgreso" d_parametro="Concepto para Fecha de Egreso" d_tipo_parametro="A"/>
				<PARAM c_modulo="LIQ" c_parametro="ConAntiguedad" d_clase="RepEgreso" d_parametro="Concepto para Antiguedad" d_tipo_parametro="A"/>
				<PARAM c_modulo="LIQ" c_parametro="ConMejorRemun" d_clase="RepEgreso" d_parametro="Concepto para Mejor Remuneraci&#243;n" d_tipo_parametro="A"/>
				<PARAM c_modulo="LIQ" c_parametro="ConRecupInver" d_clase="RepEgreso" d_parametro="Concepto para Recupero de Inversi&#243;n" d_tipo_parametro="A"/>
				<PARAM c_modulo="LIQ" c_parametro="ConPreaviso" d_clase="RepEgreso" d_parametro="Conceptos para Preaviso" d_tipo_parametro="A"/>
				<PARAM c_modulo="LIQ" c_parametro="ConSacProp" d_clase="RepEgreso" d_parametro="Conceptos para Sac Proporcional" d_tipo_parametro="A"/>
				<PARAM c_modulo="LIQ" c_parametro="ConVacNoGoz" d_clase="RepEgreso" d_parametro="Conceptos para Vacaciones no Gozadas" d_tipo_parametro="A"/>
				<PARAM c_modulo="LIQ" c_parametro="ConIndAntig" d_clase="RepEgreso" d_parametro="Conceptos para Ind. Antiguedad" d_tipo_parametro="A"/>
				<PARAM c_modulo="LIQ" c_parametro="ConIndClien" d_clase="RepEgreso" d_parametro="Conceptos para Ind. por Clientela" d_tipo_parametro="A"/>
				<PARAM c_modulo="LIQ" c_parametro="ConIndVencC" d_clase="RepEgreso" d_parametro="Conceptos para Ind. Venc. Contrato" d_tipo_parametro="A"/>
				<PARAM c_modulo="LIQ" c_parametro="ConIndInval" d_clase="RepEgreso" d_parametro="Conceptos para Ind. por Invalidez" d_tipo_parametro="A"/>
				<PARAM c_modulo="LIQ" c_parametro="ConIndFalle" d_clase="RepEgreso" d_parametro="Conceptos para Ind. por Fallecimiento" d_tipo_parametro="A"/>
				<PARAM c_modulo="LIQ" c_parametro="ConOtrasInd" d_clase="RepEgreso" d_parametro="Conceptos para otras Ind. / Gratif." d_tipo_parametro="A"/>
				<PARAM c_modulo="LIQ" c_parametro="DescAux1" d_clase="RepEgreso" d_parametro="Descripci&#243;n Auxiliar 1" d_tipo_parametro="A"/>
				<PARAM c_modulo="LIQ" c_parametro="DescAux2" d_clase="RepEgreso" d_parametro="Descripci&#243;n Auxiliar 2" d_tipo_parametro="A"/>
				<PARAM c_modulo="LIQ" c_parametro="DescAux3" d_clase="RepEgreso" d_parametro="Descripci&#243;n Auxiliar 3" d_tipo_parametro="A"/>
				<PARAM c_modulo="LIQ" c_parametro="ConAux1" d_clase="RepEgreso" d_parametro="Conceptos para Auxiliar 1" d_tipo_parametro="A"/>
				<PARAM c_modulo="LIQ" c_parametro="ConAux2" d_clase="RepEgreso" d_parametro="Conceptos para Auxiliar 2" d_tipo_parametro="A"/>
				<PARAM c_modulo="LIQ" c_parametro="ConAux3" d_clase="RepEgreso" d_parametro="Conceptos para Auxiliar 3" d_tipo_parametro="A"/>
			</PARAMS>
		</doc:define>
	</flow:declare>
	<flow:main doc="SOURCE">
		<flow:action name="initialize">
			<flow:exec-method out-type="Nomad.NSystem.Proxy.NomadXML" out-doc="DATA" class="NucleusRH.Base.Organizacion.Parametros.PARAMETRO" method="ObtenerValores">
				<flow:param doc="DATA" type="Nomad.NSystem.Proxy.NomadXML" mode="in" name="PARAM"/>
			</flow:exec-method>
			<flow:open-form form-class="NucleusRH.Base.Liquidacion.Reporte.PresupuestoEgreso.conf_avanzada.form" doc-path="#DATA:" mode="EDIT"/>
		</flow:action>
	</flow:main>
	<flow:form form-class="NucleusRH.Base.Liquidacion.Reporte.PresupuestoEgreso.conf_avanzada.form" name="NucleusRH.Base.Liquidacion.Reporte.PresupuestoEgreso.conf_avanzada.form" mode="EDIT" doc="SOURCE">
		<flow:action name="SAVE">
			<flow:exec-method class="NucleusRH.Base.Organizacion.Parametros.PARAMETRO" method="GuardarValores">
				<flow:param doc="SOURCE" type="Nomad.NSystem.Proxy.NomadXML" mode="in" name="PARAM"/>
			</flow:exec-method>
			<flow:exit-flow return-path="#SOURCE:"/>
		</flow:action>
		<flow:action name="CANCEL">
			<flow:exit-flow return-path="#SOURCE:"/>
		</flow:action>
	</flow:form>
</flow:flow>
