<flow:flow extends="NucleusRH.Base.Personal.Obras_Sociales.OBRA_SOCIAL.guia.autoflow" name="NucleusRH.Base.Personal.Obras_Sociales.OBRA_SOCIAL.guia.flow" xmlns:doc="nomad_engine.form" xmlns:qry="nomad_engine.form" xmlns:flow="nomad_engine.form">
	<flow:info label="Flow guia para NucleusRH.Base.Personal.Obras_Sociales.OBRA_SOCIAL"/>
	<flow:declare>
		<qry:define name="X2C">
			<qry:main doc="SOURCE">
				<qry:element name="ROW">
					<qry:insert-select doc-path="#SOURCE:" name="RS1"/>
				</qry:element>
			</qry:main>
			<qry:select doc="SOURCE" name="RS1">
				<qry:xquery>
					for $r in sql('SELECT t.d_interfaz as INTERFACE, t.oi_obra_social as ID, t.c_obra_social as CODE, t.d_obra_social as TEXT, SEC.policy  FROM PER06_OBRAS_SOC as t, NMD_SECURITY(class=\'NucleusRH.Base.Personal.Obras_Sociales.OBRA_SOCIAL\') as SEC JOIN t.oi_obra_social LEFT OUTER SEC.id  WHERE t.oi_obra_social={#SOURCE:helper-mess/@ID} ORDER BY CODE asc')/ROWS/ROW
				</qry:xquery>
				<qry:out>
					<qry:attribute value="$r/@ID" name="id"/>
					<qry:attribute value="$r/@ID" name="value"/>
					<qry:attribute value="$r/@CODE" name="code"/>
					<qry:attribute value="$r/@TEXT" name="text"/>
					<qry:attribute value="$r/@interface" name="interface"/>
				</qry:out>
			</qry:select>
		</qry:define>
		<qry:define declare="&lt;helper-mess CODE=&quot;IAPOS&quot; /&gt;" name="C2X">
			<qry:main doc="SOURCE">
				<qry:append-doc doc-path="#SOURCE:helper-mess" name="INDOC"/>
				<qry:element name="ROW">
					<qry:insert-select doc-path="#SOURCE:" name="RS1"/>
				</qry:element>
			</qry:main>
			<qry:select doc="SOURCE" name="RS1">
				<qry:xquery>
					for $r in sql('SELECT t.d_interfaz as INTERFACE, t.oi_obra_social as ID, t.c_obra_social as CODE, t.d_obra_social as TEXT, SEC.policy  FROM PER06_OBRAS_SOC as t, NMD_SECURITY(class=\'NucleusRH.Base.Personal.Obras_Sociales.OBRA_SOCIAL\') as SEC JOIN t.oi_obra_social LEFT OUTER SEC.id  WHERE t.c_obra_social={substring_before(#INDOC:@CODE,\'-\')}  ORDER BY CODE asc')/ROWS/ROW
				</qry:xquery>
				<qry:out>
					<qry:attribute value="$r/@policy" name="policy"/>
					<qry:attribute value="''" name="SUB_SEARCH"/>
					<qry:attribute value="''" name="PARENTID"/>
					<qry:attribute value="$r/@ID" name="id"/>
					<qry:attribute value="$r/@ID" name="value"/>
					<qry:attribute value="$r/@CODE" name="code"/>
					<qry:attribute value="$r/@TEXT" name="text"/>
					<qry:attribute value="$r/@interface" name="interface"/>
				</qry:out>
			</qry:select>
		</qry:define>
		<qry:define name="HELP">
			<qry:main doc="SOURCE">
				<qry:element name="ROWS">
					<qry:insert-select doc-path="#SOURCE:" name="RS1"/>
				</qry:element>
			</qry:main>
			<qry:select doc="SOURCE" name="RS1">
				<qry:xquery>
					for $r in sql('SELECT t.d_interfaz as INTERFACE, t.oi_obra_social as ID, t.c_obra_social as CODE, t.d_obra_social as TEXT, SEC.policy  FROM PER06_OBRAS_SOC as t, NMD_SECURITY(class=\'NucleusRH.Base.Personal.Obras_Sociales.OBRA_SOCIAL\') as SEC JOIN t.oi_obra_social LEFT OUTER SEC.id  ORDER BY CODE asc')/ROWS/ROW
				</qry:xquery>
				<qry:out>
					<qry:element name="ROW">
						<qry:attribute value="$r/@ID" name="id"/>
						<qry:attribute value="$r/@ID" name="value"/>
						<qry:attribute value="$r/@CODE" name="code"/>
						<qry:attribute value="$r/@TEXT" name="text"/>
						<qry:attribute value="$r/@policy" name="policy"/>
						<qry:attribute value="$r/@interface" name="interface"/>
					</qry:element>
				</qry:out>
			</qry:select>
		</qry:define>
	</flow:declare>
</flow:flow>
