<flow:flow xmlns:flow="nomad_engine.flow" xmlns:qry="nomad_engine.qry" extends="Nomad.combo.flow" name="NucleusRH.Base.Legales.Sujetos.CLASIF_SUJETO.guia">
	<flow:info label="Flow guia para NucleusRH.Base.Legales.Sujetos.CLASIF_SUJETO"/>
	<flow:declare>
		<qry:define name="COMBO">
			<qry:main doc="SOURCE">
				<qry:element name="ROWS">
					<qry:insert-select name="RS1"/>
				</qry:element>
			</qry:main>
			<qry:select doc="SOURCE" name="RS1">
				<qry:xquery>
					for $r in sql('
			SELECT 
			t.oi_clasif_sujeto as ID, 
			t.oi_clasif_sujeto as CODE, 
			lc.d_clasif_suj + \' - \' +ls.d_sujeto as TEXT, 
			t.oi_sujeto as PID 
			FROM 
			LEG40_CLASIF_SUJ as t,
			LEG40_SUJETOS as ls,
			LEG41_CLASIF as lc
			JOIN                
			t.oi_sujeto INNER ls.oi_sujeto,
			t.oi_clasif_suj LEFT OUTER lc.oi_clasif_suj
			WHERE
			lc.c_tareas = \'1\'
			ORDER BY CODE asc')/ROWS/ROW
				</qry:xquery>
				<qry:out>
					<qry:element name="OPT">
						<qry:attribute value="$r/@ID" name="id"/>
						<qry:attribute value="$r/@ID" name="value"/>
						<qry:attribute value="$r/@CODE" name="code"/>
						<qry:attribute value="$r/@TEXT" name="text"/>
						<qry:attribute value="$r/@policy" name="policy"/>
					</qry:element>
				</qry:out>
			</qry:select>
		</qry:define>
	</flow:declare>
</flow:flow>
