<flow:flow name="NucleusRH.Base.Postulantes.Conocimientos.si_no.combo.enum" extends="Nomad.combo.flow" xmlns:doc="nomad_engine.form" xmlns:qry="nomad_engine.form" xmlns:flow="nomad_engine.form">
	<flow:info label="Flow enum para NucleusRH.Base.Postulantes.Conocimientos.si_no.combo"/>
	<flow:declare>
		<qry:define name="COMBO">
			<qry:main doc="SOURCE">
				<qry:element name="ROWS">
					<qry:element name="OPT">
						<qry:attribute value="'1'" name="id"/>
						<qry:attribute value="'1'" name="value"/>
						<qry:attribute value="'1'" name="code"/>
						<qry:attribute value="'Si'" name="text"/>
					</qry:element>
					<qry:element name="OPT">
						<qry:attribute value="'0'" name="id"/>
						<qry:attribute value="'0'" name="value"/>
						<qry:attribute value="'0'" name="code"/>
						<qry:attribute value="'No'" name="text"/>
					</qry:element>
				</qry:element>
			</qry:main>
		</qry:define>
	</flow:declare>
</flow:flow>
