<flow:flow xmlns:flow="nomad_engine.flow" xmlns:doc="nomad_engine.doc" xmlns:qry="nomad_engine.qry" default_action="initialize" name="NucleusRH.Base.Postulantes.Reportes.comparativo.flow" extends="Nomad.Base.flow">
	<flow:info label="Este es el INFO del flow"/>
	<flow:declare>
		<doc:define class="NucleusRH.Base.Postulantes.CV.CV" name="CV_OLD"/>
		<doc:define class="NucleusRH.Base.Postulantes.CV.CV" name="CV_NEW"/>
		<doc:define name="AUX_CODE">
			<DATA c_cv=""/>
		</doc:define>
		<doc:define name="FILTERDATA">
			<DATA/>
		</doc:define>
		<doc:define name="RS"/>
		<doc:define name="RESULTADO"/>
		<qry:define declare="&lt;DATA id=&quot;8&quot;/&gt;" name="qry_ddo">
			<qry:main doc="SOURCE">
				<qry:element name="CV">
					<qry:insert-select name="qry_cv" doc-path="#SOURCE:DATA"/>
					<qry:element name="Cursos">
						<qry:element name="COLS">
							<qry:element name="d_curso_ext_cv"/>
							<qry:element name="f_fin_curso"/>
							<qry:element name="e_duracion"/>
							<qry:element name="d_lugar"/>
							<qry:element name="l_certificado"/>
							<qry:element name="l_externo"/>
							<qry:element name="o_curso"/>
							<qry:element name="oi_curso"/>
							<qry:element name="oi_unidad_tiempo"/>
						</qry:element>
						<qry:insert-select name="qry_cursos" doc-path="#SOURCE:DATA"/>
					</qry:element>
					<qry:element name="Estudios">
						<qry:element name="COLS">
							<qry:element name="f_ini_estudio"/>
							<qry:element name="f_fin_estudio"/>
							<qry:element name="l_est_extranjero"/>
							<qry:element name="d_est_educacional"/>
							<qry:element name="e_duracion_estudio"/>
							<qry:element name="e_periodo_en_curso"/>
							<qry:element name="e_cant_materias"/>
							<qry:element name="e_mat_adeudadas"/>
							<qry:element name="f_actualiz"/>
							<qry:element name="n_promedio"/>
							<qry:element name="o_estudio"/>
							<qry:element name="oi_estudio"/>
							<qry:element name="oi_nivel_estudio"/>
							<qry:element name="oi_estado_est"/>
							<qry:element name="oi_tipo_establecim"/>
							<qry:element name="oi_unidad_tiempo"/>
						</qry:element>
						<qry:insert-select name="qry_estudios" doc-path="#SOURCE:DATA"/>
					</qry:element>
					<qry:element name="Imagenes">
						<qry:element name="COLS">
							<qry:element name="d_imagen_cv"/>
							<qry:element name="o_imagen_cv"/>
							<qry:element name="oi_imagen"/>
						</qry:element>
						<qry:insert-select name="qry_imagenes" doc-path="#SOURCE:DATA"/>
					</qry:element>
					<qry:element name="Documentos_Digitales">
						<qry:element name="COLS">
							<qry:element name="d_docum_dig_cv"/>
							<qry:element name="o_docum_dig_cv"/>
							<qry:element name="oi_doc_digital"/>
						</qry:element>
						<qry:insert-select name="qry_doc_dig" doc-path="#SOURCE:DATA"/>
					</qry:element>
					<qry:element name="Idiomas">
						<qry:element name="COLS">
							<qry:element name="l_certificado"/>
							<qry:element name="d_certificado"/>
							<qry:element name="e_tiempo_cursado"/>
							<qry:element name="d_lugar_cursado"/>
							<qry:element name="o_idioma"/>
							<qry:element name="oi_idioma"/>
							<qry:element name="oi_nivel_habla"/>
							<qry:element name="oi_nivel_lee"/>
							<qry:element name="oi_nivel_escribe"/>
							<qry:element name="oi_unidad_tiempo"/>
						</qry:element>
						<qry:insert-select name="qry_idiomas" doc-path="#SOURCE:DATA"/>
					</qry:element>
					<qry:element name="Antecedentes">
						<qry:element name="COLS">
							<qry:element name="d_empresa"/>
							<qry:element name="d_puesto"/>
							<qry:element name="f_ingreso"/>
							<qry:element name="f_egreso"/>
							<qry:element name="e_experiencia"/>
							<qry:element name="o_tareas"/>
							<qry:element name="d_dom_empresa"/>
							<qry:element name="c_pais_emp"/>
							<qry:element name="c_area_emp"/>
							<qry:element name="c_telefono_emp"/>
							<qry:element name="d_contacto"/>
							<qry:element name="n_ultimo_sueldo"/>
							<qry:element name="o_antecedente_cv"/>
							<qry:element name="oi_unidad_tiempo"/>
							<qry:element name="oi_motivo_eg_per"/>
						</qry:element>
						<qry:insert-select name="qry_antecedentes" doc-path="#SOURCE:DATA"/>
					</qry:element>
					<qry:element name="Postulaciones">
						<qry:element name="COLS">
							<qry:element name="f_postulacion"/>
							<qry:element name="oi_oferta_lab"/>
						</qry:element>
						<qry:insert-select name="qry_postulaciones" doc-path="#SOURCE:DATA"/>
					</qry:element>
					<qry:element name="Competencias">
						<qry:element name="COLS">
							<qry:element name="c_nivel_comp"/>
							<qry:element name="o_competencia"/>
							<qry:element name="oi_competencia"/>
						</qry:element>
						<qry:insert-select name="qry_competencias" doc-path="#SOURCE:DATA"/>
					</qry:element>
					<qry:element name="Conocimientos">
						<qry:element name="COLS">
							<qry:element name="c_nivel"/>
							<qry:element name="oi_conocimiento"/>
						</qry:element>
						<qry:insert-select name="qry_conocimientos" doc-path="#SOURCE:DATA"/>
					</qry:element>
				</qry:element>
			</qry:main>
			<qry:select doc="PARAM" name="qry_cv">
				<qry:out>
					<qry:attribute name="id" value="$r/@oi_cv"/>
					<qry:attribute name="c_cv" value="$r/@c_cv"/>
					<qry:attribute name="d_apellido" value="$r/@d_apellido"/>
					<qry:attribute name="d_nombres" value="$r/@d_nombres"/>
					<qry:attribute name="d_apellido_materno" value="$r/@d_apellido_materno"/>
					<qry:attribute name="c_nro_doc" value="$r/@c_nro_doc"/>
					<qry:attribute name="c_sexo" value="$r/@c_sexo"/>
					<qry:attribute name="f_nacim" value="format_date($r/@f_nacim, 'dd/mm/yyyy')"/>
					<qry:attribute name="c_nro_cuil" value="$r/@c_nro_cuil"/>
					<qry:attribute name="c_codigo_postal" value="$r/@c_codigo_postal"/>
					<qry:attribute name="d_calle" value="$r/@d_calle"/>
					<qry:attribute name="c_nro" value="$r/@c_nro"/>
					<qry:attribute name="c_piso" value="$r/@c_piso"/>
					<qry:attribute name="c_departamento" value="$r/@c_departamento"/>
					<qry:attribute name="c_pais_cel" value="$r/@c_pais_cel"/>
					<qry:attribute name="c_area_cel" value="$r/@c_area_cel"/>
					<qry:attribute name="te_celular" value="$r/@te_celular"/>
					<qry:attribute name="d_email" value="$r/@d_email"/>
					<qry:attribute name="d_localidad" value="$r/@d_localidad"/>
					<qry:attribute name="c_tipo_cv" value="$r/@c_tipo_cv"/>
					<qry:attribute name="l_cabello_largo" value="$r/@l_cabello_largo" type="Nomad.NSystem.Boolean"/>
					<qry:attribute name="c_cadera" value="$r/@c_cadera"/>
					<qry:attribute name="c_cintura" value="$r/@c_cintura"/>
					<qry:attribute name="c_altura" value="$r/@c_altura"/>
					<qry:attribute name="c_peso" value="$r/@c_peso"/>
					<qry:attribute name="c_busto" value="$r/@c_busto"/>
					<qry:attribute name="c_nro_camisa" value="$r/@c_nro_camisa"/>
					<qry:attribute name="c_nro_pantalon" value="$r/@c_nro_pantalon"/>
					<qry:attribute name="c_nro_calzado" value="$r/@c_nro_calzado"/>
					<qry:attribute name="c_pais" value="$r/@c_pais"/>
					<qry:attribute name="c_area" value="$r/@c_area"/>
					<qry:attribute name="te_nro" value="$r/@te_nro"/>
					<qry:attribute name="e_cant_hijos" value="$r/@e_cant_hijos"/>
					<qry:attribute name="l_maillist" value="$r/@l_maillist" type="Nomad.NSystem.Boolean"/>
					<qry:element name="oi_foto">
						<qry:attribute name="value" value="$r/@oi_foto"/>
						<qry:insert-select name="sql_oi_doc_digital" doc-path="."/>
					</qry:element>
					<qry:attribute name="oi_foto" value="./oi_foto/@text"/>
					<qry:element name="oi_firma">
						<qry:attribute name="value" value="$r/@oi_firma"/>
						<qry:insert-select name="sql_oi_doc_digital" doc-path="."/>
					</qry:element>
					<qry:attribute name="oi_firma" value="./oi_firma/@text"/>
					<qry:element name="oi_color_ojos">
						<qry:attribute name="value" value="$r/@oi_color_ojos"/>
						<qry:insert-select name="sql_oi_color_ojos" doc-path="."/>
					</qry:element>
					<qry:attribute name="oi_color_ojos" value="./oi_color_ojos/@text"/>
					<qry:element name="oi_color_pelo">
						<qry:attribute name="value" value="$r/@oi_color_pelo"/>
						<qry:insert-select name="sql_oi_color_pelo" doc-path="."/>
					</qry:element>
					<qry:attribute name="oi_color_pelo" value="./oi_color_pelo/@text"/>
					<qry:element name="oi_cont_web">
						<qry:attribute name="value" value="$r/@oi_cont_web"/>
						<qry:insert-select name="sql_oi_cont_web" doc-path="."/>
					</qry:element>
					<qry:attribute name="oi_cont_web" value="./oi_cont_web/@text"/>
					<qry:element name="oi_nacionalidad">
						<qry:attribute name="value" value="$r/@oi_nacionalidad"/>
						<qry:insert-select name="sql_oi_nacionalidad" doc-path="."/>
					</qry:element>
					<qry:attribute name="oi_nacionalidad" value="./oi_nacionalidad/@text"/>
					<qry:element name="oi_localidad">
						<qry:attribute name="value" value="$r/@oi_localidad"/>
						<qry:insert-select name="sql_oi_localidad" doc-path="."/>
					</qry:element>
					<qry:attribute name="oi_localidad" value="./oi_localidad/@text"/>
					<qry:element name="oi_pais">
						<qry:attribute name="value" value="$r/@oi_pais"/>
						<qry:insert-select name="sql_oi_pais" doc-path="."/>
					</qry:element>
					<qry:attribute name="oi_pais" value="./oi_pais/@text"/>
					<qry:element name="oi_provincia">
						<qry:attribute name="value" value="$r/@oi_provincia"/>
						<qry:insert-select name="sql_oi_provincia" doc-path="."/>
					</qry:element>
					<qry:attribute name="oi_provincia" value="./oi_provincia/@text"/>
					<qry:element name="oi_estado_civil">
						<qry:attribute name="value" value="$r/@oi_estado_civil"/>
						<qry:insert-select name="sql_oi_estado_civil" doc-path="."/>
					</qry:element>
					<qry:attribute name="oi_estado_civil" value="./oi_estado_civil/@text"/>
					<qry:element name="oi_titulo">
						<qry:attribute name="value" value="$r/@oi_titulo"/>
						<qry:insert-select name="sql_oi_titulo" doc-path="."/>
					</qry:element>
					<qry:attribute name="oi_titulo" value="./oi_titulo/@text"/>
					<qry:element name="oi_tipo_documento">
						<qry:attribute name="value" value="$r/@oi_tipo_documento"/>
						<qry:insert-select name="sql_oi_tipo_documento" doc-path="."/>
					</qry:element>
					<qry:attribute name="oi_tipo_documento" value="./oi_tipo_documento/@text"/>
				</qry:out>
				<qry:xquery>
					for $r in SQL('SELECT	pos01.oi_cv, pos01.c_cv, pos01.d_apellido, pos01.d_nombres, pos01.d_ape_y_nom, pos01.d_apellido_materno, pos01.c_nro_doc, pos01.c_sexo, pos01.f_nacim, pos01.c_nro_cuil, pos01.c_codigo_postal, pos01.d_calle, pos01.c_nro, pos01.c_piso,	pos01.c_departamento, pos01.c_pais_cel, pos01.c_area_cel, pos01.te_celular,	pos01.d_email, pos01.f_casamiento,	pos01.f_ingreso_pais, pos01.d_localidad_nac, pos01.d_localidad, pos01.l_jubilado, pos01./&gt;
, pos01.f_desde_afjp, pos01.f_fallecimiento, pos01.c_nro_doc, pos01.c_password,	pos01.c_estado, pos01.c_tipo_cv, pos01.f_alta_cv , pos01.f_actualizacion , pos01.l_alta_web , pos01.te_laboral , pos01.te_mensaje , pos01.l_cabello_largo , pos01.c_cadera , pos01.c_cintura , pos01.c_altura , pos01.c_peso , pos01.c_busto , pos01.c_nro_camisa , pos01.c_nro_pantalon , pos01.c_nro_calzado , pos01.d_marca_movil , pos01.d_modelo_movil , pos01.e_anio_movil , pos01.l_licencia , pos01.n_min_remun , pos01.n_ideal_remun , pos01.n_actual_remun , pos01.f_disponibilidad , pos01.d_nom_con_eme , pos01.c_pais_emer , pos01.c_area_emer , pos01.te_nro_emer , pos01.c_pais , pos01.c_area , pos01.te_nro , pos01.e_cant_hijos , pos01.l_maillist , pos01.c_tipo_cv_interno , pos01.oi_foto , pos01.oi_firma , pos01.oi_grupo_sanguineo , pos01.oi_color_ojos , pos01.oi_color_pelo , pos01.oi_mot_busqueda, pos01.oi_tipo_movil , pos01.oi_tipo_licencia , pos01.oi_tipo_remun , pos01.oi_cont_web , pos01.oi_nacionalidad , pos01.oi_localidad_nac , pos01.oi_localidad , pos01.oi_pais_nac , pos01.oi_pais , pos01.oi_provincia_nac , pos01.oi_provincia , pos01.oi_idioma , pos01.oi_estado_civil , pos01.oi_afjp , pos01.oi_titulo , pos01.oi_estado_jubi , pos01.oi_tipo_documento , pos01.oi_calificacion  FROM POS01_CV as pos01 WHERE pos01.oi_cv={#PARAM:@id}')/ROWS/ROW
				</qry:xquery>
			</qry:select>
			<qry:select doc="PARAM" name="sql_oi_color_ojos">
				<qry:xquery>
					for $r in SQL('
			SELECT
				pos18.d_color_ojos as d_color_ojos
			FROM
				POS18_COLOR_OJOS as pos18
			WHERE
				pos18.oi_color_ojos={#PARAM:@value}')/ROWS/ROW
				</qry:xquery>
				<qry:out>
					<qry:attribute name="text" value="$r/@d_color_ojos"/>
				</qry:out>
			</qry:select>
			<qry:select doc="PARAM" name="sql_oi_color_pelo">
				<qry:xquery>
					for $r in SQL('
			SELECT pos19.d_color_pelo as d_color_pelo FROM POS19_COLOR_PELO as pos19 WHERE pos19.oi_color_pelo={#PARAM:@value}')/ROWS/ROW
				</qry:xquery>
				<qry:out>
					<qry:attribute name="text" value="$r/@d_color_pelo"/>
				</qry:out>
			</qry:select>
			<qry:select doc="PARAM" name="sql_oi_cont_web">
				<qry:xquery>
					for $r in SQL('SELECT pos15.d_cont_web as d_cont_web FROM POS15_CONT_WEB as pos15 WHERE pos15.oi_cont_web={#PARAM:@value}')/ROWS/ROW
				</qry:xquery>
				<qry:out>
					<qry:attribute name="text" value="$r/@d_cont_web"/>
				</qry:out>
			</qry:select>
			<qry:select doc="PARAM" name="sql_oi_nacionalidad">
				<qry:xquery>
					for $r in SQL('SELECT org12.d_nacionalidad as d_nacionalidad FROM ORG12_NACIONALID as org12 WHERE org12.oi_nacionalidad={#PARAM:@value}')/ROWS/ROW
				</qry:xquery>
				<qry:out>
					<qry:attribute name="text" value="$r/@d_nacionalidad"/>
				</qry:out>
			</qry:select>
			<qry:select doc="PARAM" name="sql_oi_localidad">
				<qry:xquery>
					for $r in SQL('SELECT org19.d_localidad as d_localidad FROM ORG19_LOCALIDADES as org19 WHERE org19.oi_localidad={#PARAM:@value}')/ROWS/ROW
				</qry:xquery>
				<qry:out>
					<qry:attribute name="text" value="$r/@d_localidad"/>
				</qry:out>
			</qry:select>
			<qry:select doc="PARAM" name="sql_oi_pais">
				<qry:xquery>
					for $r in SQL('SELECT org35.d_pais as d_pais FROM ORG35_PAISES as org35 WHERE org35.oi_pais={#PARAM:@value}')/ROWS/ROW
				</qry:xquery>
				<qry:out>
					<qry:attribute name="text" value="$r/@d_pais"/>
				</qry:out>
			</qry:select>
			<qry:select doc="PARAM" name="sql_oi_provincia">
				<qry:xquery>
					for $r in SQL('SELECT org35.d_provincia as d_provincia FROM ORG35_PROVINCIAS as org35 WHERE org35.oi_provincia={#PARAM:@value}')/ROWS/ROW
				</qry:xquery>
				<qry:out>
					<qry:attribute name="text" value="$r/@d_provincia"/>
				</qry:out>
			</qry:select>
			<qry:select doc="PARAM" name="sql_oi_estado_civil">
				<qry:xquery>
					for $r in SQL('SELECT org22.d_estado_civil as d_estado_civil FROM ORG22_EST_CIVIL as org22 WHERE org22.oi_estado_civil={#PARAM:@value}')/ROWS/ROW
				</qry:xquery>
				<qry:out>
					<qry:attribute name="text" value="$r/@d_estado_civil"/>
				</qry:out>
			</qry:select>
			<qry:select doc="PARAM" name="sql_oi_titulo">
				<qry:xquery>
					for $r in SQL('SELECT per04.d_titulo as d_titulo FROM PER04_TITULOS as per04 WHERE per04.oi_titulo={#PARAM:@value}')/ROWS/ROW
				</qry:xquery>
				<qry:out>
					<qry:attribute name="text" value="$r/@d_titulo"/>
				</qry:out>
			</qry:select>
			<qry:select doc="PARAM" name="sql_oi_tipo_documento">
				<qry:xquery>
					for $r in SQL('SELECT per20.d_tipo_documento as d_tipo_documento FROM PER20_TIPOS_DOC as per20 WHERE per20.oi_tipo_documento={#PARAM:@value}')/ROWS/ROW
				</qry:xquery>
				<qry:out>
					<qry:attribute name="text" value="$r/@d_tipo_documento"/>
				</qry:out>
			</qry:select>
			<qry:select doc="PARAM" name="qry_cursos">
				<qry:out>
					<qry:element name="CURSO_EXT_CV">
						<qry:attribute name="id" value="$r/@oi_curso_ext_cv"/>
						<qry:attribute name="d_curso_ext_cv" value="$r/@d_curso_ext_cv"/>
						<qry:attribute name="f_fin_curso" value="format_date($r/@f_fin_curso, 'dd/mm/yyyy')"/>
						<qry:attribute name="e_duracion" value="$r/@e_duracion"/>
						<qry:attribute name="d_lugar" value="$r/@d_lugar"/>
						<qry:attribute name="l_certificado" value="$r/@l_certificado" type="Nomad.NSystem.Boolean"/>
						<qry:attribute name="l_externo" value="$r/@l_externo" type="Nomad.NSystem.Boolean"/>
						<qry:attribute name="o_curso" value="$r/@o_curso"/>
						<qry:element name="oi_curso">
							<qry:attribute name="value" value="$r/@oi_curso" class="NucleusRH.Base.Organizacion.Cursos.CURSO"/>
							<qry:insert-select name="sql_oi_curso" doc-path="."/>
						</qry:element>
						<qry:attribute name="oi_curso" value="./oi_curso/@text"/>
						<qry:element name="oi_unidad_tiempo">
							<qry:attribute name="value" value="$r/@oi_unidad_tiempo" class="NucleusRH.Base.Organizacion.Unidades_de_Tiempo.UNIDAD_TIEMPO"/>
							<qry:insert-select name="sql_oi_unidad_tiempo" doc-path="."/>
						</qry:element>
						<qry:attribute name="oi_unidad_tiempo" value="./oi_unidad_tiempo/@text"/>
					</qry:element>
				</qry:out>
				<qry:xquery>
					for $r in SQL('SELECT pos01.oi_curso_ext_cv , pos01.oi_cv , pos01.d_curso_ext_cv , pos01.f_fin_curso , pos01.e_duracion , pos01.d_lugar , pos01.l_certificado , pos01.l_externo , pos01.o_curso , pos01.oi_curso , pos01.oi_unidad_tiempo  FROM POS01_CURSOS_CV as pos01 WHERE pos01.oi_cv={#PARAM:@id}')/ROWS/ROW
				</qry:xquery>
			</qry:select>
			<qry:select doc="PARAM" name="sql_oi_curso">
				<qry:xquery>
					for $r in SQL('SELECT org06.d_curso as d_curso FROM ORG06_CURSOS as org06 WHERE org06.oi_curso={#PARAM:@value}')/ROWS/ROW
				</qry:xquery>
				<qry:out>
					<qry:attribute name="text" value="$r/@d_curso"/>
				</qry:out>
			</qry:select>
			<qry:select doc="PARAM" name="sql_oi_unidad_tiempo">
				<qry:xquery>
					for $r in SQL('SELECT org25.d_unidad_tiempo as d_unidad_tiempo FROM ORG25_UNIDADES_TPO as org25 WHERE org25.oi_unidad_tiempo={#PARAM:@value}')/ROWS/ROW
				</qry:xquery>
				<qry:out>
					<qry:attribute name="text" value="$r/@d_unidad_tiempo"/>
				</qry:out>
			</qry:select>
			<qry:select doc="PARAM" name="qry_estudios">
				<qry:out>
					<qry:element name="ESTUDIO_CV">
						<qry:attribute name="id" value="$r/@oi_estudio_cv"/>
						<qry:attribute name="f_ini_estudio" value="format_date($r/@f_ini_estudio, 'dd/mm/yyyy')"/>
						<qry:attribute name="f_fin_estudio" value="format_date($r/@f_fin_estudio, 'dd/mm/yyyy')"/>
						<qry:attribute name="l_est_extranjero" value="$r/@l_est_extranjero" type="Nomad.NSystem.Boolean"/>
						<qry:attribute name="d_est_educacional" value="$r/@d_est_educacional"/>
						<qry:attribute name="e_duracion_estudio" value="$r/@e_duracion_estudio"/>
						<qry:attribute name="e_periodo_en_curso" value="$r/@e_periodo_en_curso"/>
						<qry:attribute name="e_cant_materias" value="$r/@e_cant_materias"/>
						<qry:attribute name="e_mat_adeudadas" value="$r/@e_mat_adeudadas"/>
						<qry:attribute name="n_promedio" value="$r/@n_promedio" type="Nomad.NSystem.Double"/>
						<qry:attribute name="o_estudio" value="$r/@o_estudio"/>
						<qry:element name="oi_estudio">
							<qry:attribute name="value" value="$r/@oi_estudio"/>
							<qry:insert-select name="sql_oi_estudio" doc-path="."/>
						</qry:element>
						<qry:attribute name="oi_estudio" value="./oi_estudio/@text"/>
						<qry:element name="oi_nivel_estudio">
							<qry:attribute name="value" value="$r/@oi_nivel_estudio"/>
							<qry:insert-select name="sql_oi_nivel_estudio" doc-path="."/>
						</qry:element>
						<qry:attribute name="oi_nivel_estudio" value="./oi_nivel_estudio/@text"/>
						<qry:element name="oi_estado_est">
							<qry:attribute name="value" value="$r/@oi_estado_est"/>
							<qry:insert-select name="sql_oi_estado_est" doc-path="."/>
						</qry:element>
						<qry:attribute name="oi_estado_est" value="./oi_estado_est/@text"/>
						<qry:element name="oi_tipo_establecim">
							<qry:attribute name="value" value="$r/@oi_tipo_establecim"/>
							<qry:insert-select name="sql_oi_tipo_establecim" doc-path="."/>
						</qry:element>
						<qry:attribute name="oi_tipo_establecim" value="./oi_tipo_establecim/@text"/>
						<qry:element name="oi_unidad_tiempo">
							<qry:attribute name="value" value="$r/@oi_unidad_tiempo"/>
							<qry:insert-select name="sql_oi_unidad_tiempo" doc-path="."/>
						</qry:element>
						<qry:attribute name="oi_unidad_tiempo" value="./oi_unidad_tiempo/@text"/>
					</qry:element>
				</qry:out>
				<qry:xquery>
					for $r in SQL('SELECT pos01.oi_estudio_cv , pos01.oi_cv , pos01.f_ini_estudio , pos01.f_fin_estudio , pos01.l_est_extranjero , pos01.d_est_educacional , pos01.e_duracion_estudio , pos01.e_periodo_en_curso , pos01.e_cant_materias , pos01.e_mat_adeudadas , pos01.f_actualiz , pos01.n_promedio , pos01.o_estudio , pos01.oi_estudio , pos01.oi_nivel_estudio , pos01.oi_estado_est , pos01.oi_tipo_establecim , pos01.oi_unidad_tiempo  FROM POS01_ESTUDIOS_CV as pos01 WHERE pos01.oi_cv={#PARAM:@id}')/ROWS/ROW
				</qry:xquery>
			</qry:select>
			<qry:select doc="PARAM" name="sql_oi_estudio">
				<qry:xquery>
					for $r in SQL('SELECT org11.oi_estudio as oi_estudio, org11.c_estudio as c_estudio, org11.d_estudio as d_estudio FROM ORG11_ESTUDIOS as org11 WHERE org11.oi_estudio={#PARAM:@value}')/ROWS/ROW
				</qry:xquery>
				<qry:out>
					<qry:attribute name="text" value="$r/@d_estudio"/>
				</qry:out>
			</qry:select>
			<qry:select doc="PARAM" name="sql_oi_nivel_estudio">
				<qry:xquery>
					for $r in SQL('SELECT per12.oi_nivel_estudio as oi_nivel_estudio, per12.c_nivel_estudio as c_nivel_estudio, per12.d_nivel_estudio as d_nivel_estudio FROM PER12_NIVELES_EST as per12 WHERE per12.oi_nivel_estudio={#PARAM:@value}')/ROWS/ROW
				</qry:xquery>
				<qry:out>
					<qry:attribute name="text" value="$r/@d_nivel_estudio"/>
				</qry:out>
			</qry:select>
			<qry:select doc="PARAM" name="sql_oi_estado_est">
				<qry:xquery>
					for $r in SQL('SELECT per13.oi_estado_est as oi_estado_est, per13.c_estado_est as c_estado_est, per13.d_estado_est as d_estado_est FROM PER13_ESTADOS_EST as per13 WHERE per13.oi_estado_est={#PARAM:@value}')/ROWS/ROW
				</qry:xquery>
				<qry:out>
					<qry:attribute name="text" value="$r/@d_estado_est"/>
				</qry:out>
			</qry:select>
			<qry:select doc="PARAM" name="sql_oi_tipo_establecim">
				<qry:xquery>
					for $r in SQL('SELECT per23.d_tipo_establecim as d_tipo_establecim FROM PER23_T_EST_EDUC as per23 WHERE per23.oi_tipo_establecim={#PARAM:@value}')/ROWS/ROW
				</qry:xquery>
				<qry:out>
					<qry:attribute name="text" value="$r/@d_tipo_establecim"/>
				</qry:out>
			</qry:select>
			<qry:select doc="PARAM" name="qry_competencias">
				<qry:out>
					<qry:element name="COMPETENCIA_CV">
						<qry:attribute name="id" value="$r/@oi_competencia_cv"/>
						<qry:attribute name="c_nivel_comp" value="$r/@c_nivel_comp"/>
						<qry:attribute name="o_competencia" value="$r/@o_competencia"/>
						<qry:element name="oi_competencia">
							<qry:attribute name="value" value="$r/@oi_competencia" class="NucleusRH.Base.Organizacion.Competencias.COMPETENCIA"/>
							<qry:insert-select name="sql_oi_competencia" doc-path="."/>
						</qry:element>
						<qry:attribute name="oi_competencia" value="./oi_competencia/@text"/>
					</qry:element>
				</qry:out>
				<qry:xquery>
					for $r in SQL('SELECT pos01.oi_competencia_cv , pos01.oi_cv , pos01.c_nivel_comp , pos01.o_competencia , pos01.oi_competencia  FROM POS01_COMPET_CV as pos01 WHERE pos01.oi_cv={#PARAM:@id}')/ROWS/ROW
				</qry:xquery>
			</qry:select>
			<qry:select doc="PARAM" name="sql_oi_competencia">
				<qry:xquery>
					for $r in SQL('SELECT org21.d_competencia as d_competencia FROM ORG21_COMPETENCIAS as org21 WHERE org21.oi_competencia={#PARAM:@value}')/ROWS/ROW
				</qry:xquery>
				<qry:out>
					<qry:attribute name="text" value="$r/@d_competencia"/>
				</qry:out>
			</qry:select>
			<qry:select doc="PARAM" name="qry_idiomas">
				<qry:out>
					<qry:element name="IDIOMA_CV">
						<qry:attribute name="id" value="$r/@oi_idioma_cv"/>
						<qry:attribute name="l_certificado" value="$r/@l_certificado" type="Nomad.NSystem.Boolean"/>
						<qry:attribute name="d_certificado" value="$r/@d_certificado"/>
						<qry:attribute name="e_tiempo_cursado" value="$r/@e_tiempo_cursado"/>
						<qry:attribute name="d_lugar_cursado" value="$r/@d_lugar_cursado"/>
						<qry:attribute name="o_idioma" value="$r/@o_idioma"/>
						<qry:element name="oi_idioma">
							<qry:attribute name="value" value="$r/@oi_idioma" class="NucleusRH.Base.Organizacion.Idiomas.IDIOMA"/>
							<qry:insert-select name="sql_oi_idioma" doc-path="."/>
						</qry:element>
						<qry:attribute name="oi_idioma" value="./oi_idioma/@text"/>
						<qry:element name="oi_nivel_habla">
							<qry:attribute name="value" value="$r/@oi_nivel_habla" class="NucleusRH.Base.Organizacion.Niveles_Idioma.NIVEL_IDIOMA"/>
							<qry:insert-select name="sql_oi_nivel" doc-path="."/>
						</qry:element>
						<qry:attribute name="oi_nivel_habla" value="./oi_nivel_habla/@text"/>
						<qry:element name="oi_nivel_lee">
							<qry:attribute name="value" value="$r/@oi_nivel_lee" class="NucleusRH.Base.Organizacion.Niveles_Idioma.NIVEL_IDIOMA"/>
							<qry:insert-select name="sql_oi_nivel" doc-path="."/>
						</qry:element>
						<qry:attribute name="oi_nivel_lee" value="./oi_nivel_lee/@text"/>
						<qry:element name="oi_nivel_escribe">
							<qry:attribute name="value" value="$r/@oi_nivel_escribe" class="NucleusRH.Base.Organizacion.Niveles_Idioma.NIVEL_IDIOMA"/>
							<qry:insert-select name="sql_oi_nivel" doc-path="."/>
						</qry:element>
						<qry:attribute name="oi_nivel_escribe" value="./oi_nivel_escribe/@text"/>
						<qry:element name="oi_unidad_tiempo">
							<qry:attribute name="value" value="$r/@oi_unidad_tiempo"/>
							<qry:insert-select name="sql_oi_unidad_tiempo" doc-path="."/>
						</qry:element>
						<qry:attribute name="oi_unidad_tiempo" value="./oi_unidad_tiempo/@text"/>
					</qry:element>
				</qry:out>
				<qry:xquery>
					for $r in SQL('SELECT pos01.oi_idioma_cv , pos01.oi_cv , pos01.l_certificado , pos01.d_certificado , pos01.e_tiempo_cursado , pos01.d_lugar_cursado , pos01.o_idioma , pos01.oi_idioma , pos01.oi_nivel_habla , pos01.oi_nivel_lee , pos01.oi_nivel_escribe , pos01.oi_unidad_tiempo  FROM POS01_IDIOMAS_CV as pos01 WHERE pos01.oi_cv={#PARAM:@id}')/ROWS/ROW
				</qry:xquery>
			</qry:select>
			<qry:select doc="PARAM" name="sql_oi_idioma">
				<qry:xquery>
					for $r in SQL('SELECT org20.oi_idioma as oi_idioma, org20.c_idioma as c_idioma, org20.d_idioma as d_idioma FROM ORG20_IDIOMAS as org20 WHERE org20.oi_idioma={#PARAM:@value}')/ROWS/ROW
				</qry:xquery>
				<qry:out>
					<qry:attribute name="text" value="$r/@d_idioma"/>
				</qry:out>
			</qry:select>
			<qry:select doc="PARAM" name="sql_oi_nivel">
				<qry:xquery>
					for $r in SQL('SELECT org24.oi_nivel_idioma as oi_nivel_idioma, org24.c_nivel_idioma as c_nivel_idioma, org24.d_nivel_idioma as d_nivel_idioma FROM ORG24_NIV_IDIOMA as org24 WHERE org24.oi_nivel_idioma={#PARAM:@value}')/ROWS/ROW
				</qry:xquery>
				<qry:out>
					<qry:attribute name="text" value="$r/@d_nivel_idioma"/>
				</qry:out>
			</qry:select>
			<qry:select doc="PARAM" name="qry_antecedentes">
				<qry:out>
					<qry:element name="ANTECEDENTE_CV">
						<qry:attribute name="id" value="$r/@oi_antecedente_cv"/>
						<qry:attribute name="d_empresa" value="$r/@d_empresa"/>
						<qry:attribute name="d_puesto" value="$r/@d_puesto"/>
						<qry:attribute name="f_ingreso" value="format_date($r/@f_ingreso, 'dd/mm/yyyy')"/>
						<qry:attribute name="f_egreso" value="format_date($r/@f_egreso, 'dd/mm/yyyy')"/>
						<qry:attribute name="e_experiencia" value="$r/@e_experiencia"/>
						<qry:attribute name="o_tareas" value="$r/@o_tareas"/>
						<qry:attribute name="d_dom_empresa" value="$r/@d_dom_empresa"/>
						<qry:attribute name="c_pais_emp" value="$r/@c_pais_emp" type="Nomad.NSystem.Double"/>
						<qry:attribute name="c_area_emp" value="$r/@c_area_emp" type="Nomad.NSystem.Double"/>
						<qry:attribute name="c_telefono_emp" value="$r/@c_telefono_emp" type="Nomad.NSystem.Double"/>
						<qry:attribute name="d_contacto" value="$r/@d_contacto"/>
						<qry:attribute name="n_ultimo_sueldo" value="$r/@n_ultimo_sueldo" type="Nomad.NSystem.Double"/>
						<qry:attribute name="o_antecedente_cv" value="$r/@o_antecedente_cv"/>
						<qry:element name="oi_unidad_tiempo">
							<qry:attribute name="value" value="$r/@oi_unidad_tiempo"/>
							<qry:insert-select name="sql_oi_unidad_tiempo" doc-path="."/>
						</qry:element>
						<qry:attribute name="oi_unidad_tiempo" value="./oi_unidad_tiempo/@text"/>
						<qry:element name="oi_motivo_eg_per">
							<qry:attribute name="value" value="$r/@oi_motivo_eg_per" class="NucleusRH.Base.Personal.Motivos_Egreso_Personal.MOTIVO_EG_PER"/>
							<qry:insert-select name="sql_oi_motivo_eg_per" doc-path="."/>
						</qry:element>
						<qry:attribute name="oi_motivo_eg_per" value="./oi_motivo_eg_per/@text"/>
					</qry:element>
				</qry:out>
				<qry:xquery>
					for $r in SQL('SELECT pos01.oi_antecedente_cv , pos01.oi_cv , pos01.d_empresa , pos01.d_puesto , pos01.f_ingreso , pos01.f_egreso , pos01.e_experiencia , pos01.o_tareas , pos01.d_dom_empresa , pos01.c_pais_emp , pos01.c_area_emp , pos01.c_telefono_emp , pos01.d_contacto , pos01.n_ultimo_sueldo , pos01.o_antecedente_cv , pos01.oi_unidad_tiempo , pos01.oi_motivo_eg_per  FROM POS01_ANTEC_CV as pos01 WHERE pos01.oi_cv={#PARAM:@id}')/ROWS/ROW
				</qry:xquery>
			</qry:select>
			<qry:select doc="PARAM" name="sql_oi_motivo_eg_per">
				<qry:xquery>
					for $r in SQL('SELECT per22.d_motivo_eg_per as d_motivo_eg_per FROM PER22_MOT_EG_PER as per22 WHERE per22.oi_motivo_eg_per={#PARAM:@value}')/ROWS/ROW
				</qry:xquery>
				<qry:out>
					<qry:attribute name="text" value="$r/@d_motivo_eg_per"/>
				</qry:out>
			</qry:select>