<flow:flow xmlns:flow="nomad_engine.flow" xmlns:doc="nomad_engine.doc" extends="NucleusRH.Base.Configuracion.Paginas.PAGINA.MAIN.STD.autoflow" default_action="ADD" name="NucleusRH.Base.Configuracion.Paginas.PAGINA.MAIN.STD.flow">
	<flow:info label="NucleusRH.Base.Configuracion.Paginas.PAGINA.MAIN.STD.autoflow"/>
	<flow:main doc="SOURCE">
		<flow:action name="EDIT_HTML">
			<doc:set-attribute from-attr-path="#SOURCE:@ID" to-attr-path="#SELECT:@ID"/>
			<doc:set-attribute from-attr-path="#SOURCE:@PARENT" to-attr-path="#SELECT:@PARENT"/>
			<flow:open-form mode="EDIT_HTML" parent-doc-path="#SOURCE:" doc-path="#SELECT:" form-class="NucleusRH.Base.Configuracion.Paginas.PAGINA.MAIN.STD_REG.form"/>
		</flow:action>
		<flow:action name="EDIT_WIKI">
			<doc:set-attribute from-attr-path="#SOURCE:@ID" to-attr-path="#SELECT:@ID"/>
			<doc:set-attribute from-attr-path="#SOURCE:@PARENT" to-attr-path="#SELECT:@PARENT"/>
			<flow:open-form mode="EDIT_WIKI" parent-doc-path="#SOURCE:" doc-path="#SELECT:" form-class="NucleusRH.Base.Configuracion.Paginas.PAGINA.MAIN.STD_REG.form"/>
		</flow:action>
		<flow:action name="EDIT_TABLE">
			<doc:set-attribute from-attr-path="#SOURCE:@ID" to-attr-path="#SELECT:@ID"/>
			<doc:set-attribute from-attr-path="#SOURCE:@PARENT" to-attr-path="#SELECT:@PARENT"/>
			<flow:open-form mode="EDIT_TABLE" parent-doc-path="#SOURCE:" doc-path="#SELECT:" form-class="NucleusRH.Base.Configuracion.Paginas.PAGINA.MAIN.STD_REG.form"/>
		</flow:action>
		<flow:action name="EDIT_GADGET">
			<doc:set-attribute from-attr-path="#SOURCE:@ID" to-attr-path="#SELECT:@ID"/>
			<doc:set-attribute from-attr-path="#SOURCE:@PARENT" to-attr-path="#SELECT:@PARENT"/>
			<flow:open-form mode="EDIT_GADGET" parent-doc-path="#SOURCE:" doc-path="#SELECT:" form-class="NucleusRH.Base.Configuracion.Paginas.PAGINA.MAIN.STD_REG.form"/>
		</flow:action>
		<flow:action name="PUBLICAR">
			<flow:exec-method class="NucleusRH.Base.Configuracion.Paginas.PAGINA" method="Publish">
				<flow:param attr-path="#SOURCE:@PARENT" type="Nomad.NSystem.String" mode="in" name="Id"/>
			</flow:exec-method>
			<flow:exit-flow return-path="#SOURCE:"/>
		</flow:action>
		<flow:action name="EDIT_IMAGE">
			<doc:set-attribute from-attr-path="#SOURCE:@ID" to-attr-path="#SELECT:@ID"/>
			<doc:set-attribute from-attr-path="#SOURCE:@PARENT" to-attr-path="#SELECT:@PARENT"/>
			<flow:open-form mode="EDIT_IMAGE" parent-doc-path="#SOURCE:" doc-path="#SELECT:" form-class="NucleusRH.Base.Configuracion.Paginas.PAGINA.MAIN.STD_REG.form"/>
		</flow:action>
		<flow:action name="EDIT_SWITCH">
			<doc:set-attribute from-attr-path="#SOURCE:@ID" to-attr-path="#SELECT:@ID"/>
			<doc:set-attribute from-attr-path="#SOURCE:@PARENT" to-attr-path="#SELECT:@PARENT"/>
			<flow:open-form mode="EDIT_SWITCH" parent-doc-path="#SOURCE:" doc-path="#SELECT:" form-class="NucleusRH.Base.Configuracion.Paginas.PAGINA.MAIN.STD_REG.form"/>
		</flow:action>
		<flow:action name="EDIT_SCHEDULER">
			<doc:set-attribute from-attr-path="#SOURCE:@ID" to-attr-path="#SELECT:@ID"/>
			<doc:set-attribute from-attr-path="#SOURCE:@PARENT" to-attr-path="#SELECT:@PARENT"/>
			<flow:open-form mode="EDIT_SCHEDULER" parent-doc-path="#SOURCE:" doc-path="#SELECT:" form-class="NucleusRH.Base.Configuracion.Paginas.PAGINA.MAIN.STD_REG.form"/>
		</flow:action>
		<flow:action name="GUIA_SCHEDULER">
			<flow:open-form mode="EDIT" parent-doc-path="#SOURCE:" doc-path="#SOURCE:" form-class="NucleusRH.Base.Configuracion.Paginas.PAGINA.SCHEDULER.form"/>
		</flow:action>
		<flow:action name="GUIA_GADGET_ENUM">
			<flow:open-form mode="ENUM" parent-doc-path="#SOURCE:" doc-path="#SOURCE:" form-class="NucleusRH.Base.Configuracion.Paginas.PAGINA.GADGET.form"/>
		</flow:action>
		<flow:action name="GUIA_GADGET_STRING">
			<flow:open-form mode="STRING" parent-doc-path="#SOURCE:" doc-path="#SOURCE:" form-class="NucleusRH.Base.Configuracion.Paginas.PAGINA.GADGET.form"/>
		</flow:action>
		<flow:action name="GUIA_GADGET_INT">
			<flow:open-form mode="INT" parent-doc-path="#SOURCE:" doc-path="#SOURCE:" form-class="NucleusRH.Base.Configuracion.Paginas.PAGINA.GADGET.form"/>
		</flow:action>
	</flow:main>
	<flow:form mode="EDIT_HTML" name="NucleusRH.Base.Configuracion.Paginas.PAGINA.MAIN.STD_REG.form:EDIT_HTML" extends="NucleusRH.Base.Configuracion.Paginas.PAGINA.MAIN.STD_REG.form:EDIT" parent-doc="PARENT" doc="SOURCE" form-class="NucleusRH.Base.Configuracion.Paginas.PAGINA.MAIN.STD_REG.form"/>
	<flow:form mode="EDIT_WIKI" name="NucleusRH.Base.Configuracion.Paginas.PAGINA.MAIN.STD_REG.form:EDIT_WIKI" extends="NucleusRH.Base.Configuracion.Paginas.PAGINA.MAIN.STD_REG.form:EDIT" parent-doc="PARENT" doc="SOURCE" form-class="NucleusRH.Base.Configuracion.Paginas.PAGINA.MAIN.STD_REG.form"/>
	<flow:form mode="EDIT_TABLE" name="NucleusRH.Base.Configuracion.Paginas.PAGINA.MAIN.STD_REG.form:EDIT_TABLE" extends="NucleusRH.Base.Configuracion.Paginas.PAGINA.MAIN.STD_REG.form:EDIT" parent-doc="PARENT" doc="SOURCE" form-class="NucleusRH.Base.Configuracion.Paginas.PAGINA.MAIN.STD_REG.form"/>
	<flow:form name="NucleusRH.Base.Configuracion.Paginas.PAGINA.MAIN.STD_REG.form:EDIT_GADGET" mode="EDIT_GADGET" extends="NucleusRH.Base.Configuracion.Paginas.PAGINA.MAIN.STD_REG.form:EDIT" parent-doc="PARENT" doc="SOURCE" form-class="NucleusRH.Base.Configuracion.Paginas.PAGINA.MAIN.STD_REG.form"/>
	<flow:form extends="NucleusRH.Base.Configuracion.Paginas.PAGINA.MAIN.STD_REG.form:NEW" name="NucleusRH.Base.Configuracion.Paginas.PAGINA.MAIN.STD_REG.form2:NEW" mode="NEW" parent-doc="PARENT" doc="SOURCE" form-class="NucleusRH.Base.Configuracion.Paginas.PAGINA.MAIN.STD_REG.form">
		<flow:action name="NEXT">
			<doc:save-object class="NucleusRH.Base.Configuracion.Paginas.PAGINA" doc="DDO"/>
			<flow:close-form/>
			<doc:set-attribute from-attr-path="#DDO:@id" to-attr-path="#SELECT:@ID"/>
			<flow:call-action if="#DDO:@c_tipo" eq="HTML" action="EDIT_HTML"/>
			<flow:call-action if="#DDO:@c_tipo" eq="WIKI" action="EDIT_WIKI"/>
			<flow:call-action if="#DDO:@c_tipo" eq="TABLE" action="EDIT_TABLE"/>
			<flow:call-action if="#DDO:@c_tipo" eq="GADGET" action="EDIT_GADGET"/>
			<flow:call-action if="#DDO:@c_tipo" eq="IMAGE" action="EDIT_IMAGE"/>
			<flow:call-action eq="SWITCH" action="EDIT_SWITCH" if="#DDO:@c_tipo"/>
			<flow:call-action eq="SCHEDULER" action="EDIT_SCHEDULER" if="#DDO:@c_tipo"/>
		</flow:action>
		<flow:action name="EDIT_HTML">
			<flow:open-form mode="EDIT_HTML" parent-doc-path="#SOURCE:" doc-path="#SELECT:" form-class="NucleusRH.Base.Configuracion.Paginas.PAGINA.MAIN.STD_REG.form"/>
		</flow:action>
		<flow:action name="EDIT_WIKI">
			<flow:open-form mode="EDIT_WIKI" parent-doc-path="#SOURCE:" doc-path="#SELECT:" form-class="NucleusRH.Base.Configuracion.Paginas.PAGINA.MAIN.STD_REG.form"/>
		</flow:action>
		<flow:action name="EDIT_TABLE">
			<flow:open-form mode="EDIT_TABLE" parent-doc-path="#SOURCE:" doc-path="#SELECT:" form-class="NucleusRH.Base.Configuracion.Paginas.PAGINA.MAIN.STD_REG.form"/>
		</flow:action>
		<flow:action name="EDIT_GADGET">
			<flow:open-form mode="EDIT_GADGET" parent-doc-path="#SOURCE:" doc-path="#SELECT:" form-class="NucleusRH.Base.Configuracion.Paginas.PAGINA.MAIN.STD_REG.form"/>
		</flow:action>
		<flow:action name="EDIT_IMAGE">
			<flow:open-form mode="EDIT_IMAGE" parent-doc-path="#SOURCE:" doc-path="#SELECT:" form-class="NucleusRH.Base.Configuracion.Paginas.PAGINA.MAIN.STD_REG.form"/>
		</flow:action>
		<flow:action name="EDIT_SWITCH">
			<flow:open-form mode="EDIT_SWITCH" parent-doc-path="#SOURCE:" doc-path="#SELECT:" form-class="NucleusRH.Base.Configuracion.Paginas.PAGINA.MAIN.STD_REG.form"/>
		</flow:action>
		<flow:action name="EDIT_SCHEDULER">
			<flow:open-form mode="EDIT_SCHEDULER" parent-doc-path="#SOURCE:" doc-path="#SELECT:" form-class="NucleusRH.Base.Configuracion.Paginas.PAGINA.MAIN.STD_REG.form"/>
		</flow:action>
	</flow:form>
	<flow:form name="NucleusRH.Base.Configuracion.Paginas.PAGINA.MAIN.STD_REG.form:EDIT_IMAGE" mode="EDIT_IMAGE" extends="NucleusRH.Base.Configuracion.Paginas.PAGINA.MAIN.STD_REG.form:EDIT" parent-doc="PARENT" doc="SOURCE" form-class="NucleusRH.Base.Configuracion.Paginas.PAGINA.MAIN.STD_REG.form"/>
	<flow:form name="NucleusRH.Base.Configuracion.Paginas.PAGINA.MAIN.STD_REG.form:EDIT_SWITCH" mode="EDIT_SWITCH" extends="NucleusRH.Base.Configuracion.Paginas.PAGINA.MAIN.STD_REG.form:EDIT" parent-doc="PARENT" doc="SOURCE" form-class="NucleusRH.Base.Configuracion.Paginas.PAGINA.MAIN.STD_REG.form"/>
	<flow:form name="NucleusRH.Base.Configuracion.Paginas.PAGINA.MAIN.STD_REG.form:EDIT_SCHEDULER" mode="EDIT_SCHEDULER" extends="NucleusRH.Base.Configuracion.Paginas.PAGINA.MAIN.STD_REG.form:EDIT" parent-doc="PARENT" doc="SOURCE" form-class="NucleusRH.Base.Configuracion.Paginas.PAGINA.MAIN.STD_REG.form"/>
	<flow:form mode="EDIT" name="NucleusRH.Base.Configuracion.Paginas.PAGINA.SCHEDULER.form:EDIT" parent-doc="PARENT" doc="SOURCE" form-class="NucleusRH.Base.Configuracion.Paginas.PAGINA.SCHEDULER.form">
		<flow:action name="ACCEPT">
			<doc:set-attribute from-value="ACCEPT" to-attr-path="#SOURCE:@BUT"/>
			<flow:exit-flow return-path="#SOURCE:"/>
		</flow:action>
		<flow:action name="CANCEL">
			<doc:set-attribute from-value="CANCEL" to-attr-path="#SOURCE:@BUT"/>
			<flow:exit-flow return-path="#SOURCE:"/>
		</flow:action>
		<flow:action name="on-show"/>
	</flow:form>
	<flow:form name="NucleusRH.Base.Configuracion.Paginas.PAGINA.GADGET.form:ENUM" mode="ENUM" parent-doc="PARENT" doc="SOURCE" form-class="NucleusRH.Base.Configuracion.Paginas.PAGINA.GADGET.form">
		<flow:action name="ACCEPT">
			<doc:set-attribute from-value="ACCEPT" to-attr-path="#SELECT:@BUT"/>
			<doc:set-attribute from-value="ENUM" to-attr-path="#SELECT:@type"/>
			<flow:exit-flow return-path="#SELECT:"/>
		</flow:action>
		<flow:action name="CANCEL">
			<doc:set-attribute from-value="CANCEL" to-attr-path="#SELECT:@BUT"/>
			<flow:exit-flow return-path="#SELECT:"/>
		</flow:action>
		<flow:action name="on-show">
			<flow:attach-doc doc-path="#SOURCE:" attach-id="RS"/>
		</flow:action>
	</flow:form>
	<flow:form name="NucleusRH.Base.Configuracion.Paginas.PAGINA.GADGET.form:STRING" mode="STRING" parent-doc="PARENT" doc="SOURCE" form-class="NucleusRH.Base.Configuracion.Paginas.PAGINA.GADGET.form">
		<flow:action name="ACCEPT">
			<doc:set-attribute from-value="ACCEPT" to-attr-path="#SELECT:@BUT"/>
			<doc:set-attribute from-attr-path="#SOURCE:@string" to-attr-path="#SELECT:@selectID"/>
			<doc:set-attribute from-value="STRING" to-attr-path="#SELECT:@type"/>
			<flow:exit-flow return-path="#SELECT:"/>
		</flow:action>
		<flow:action name="CANCEL">
			<doc:set-attribute from-value="CANCEL" to-attr-path="#SELECT:@BUT"/>
			<flow:exit-flow return-path="#SELECT:"/>
		</flow:action>
		<flow:action name="on-show">
			<doc:set-attribute from-attr-path="#SOURCE:@selectID" to-attr-path="#SOURCE:@string"/>
		</flow:action>
	</flow:form>
	<flow:form name="NucleusRH.Base.Configuracion.Paginas.PAGINA.GADGET.form:INT" mode="INT" parent-doc="PARENT" doc="SOURCE" form-class="NucleusRH.Base.Configuracion.Paginas.PAGINA.GADGET.form">
		<flow:action name="ACCEPT">
			<doc:set-attribute from-value="ACCEPT" to-attr-path="#SELECT:@BUT"/>
			<doc:set-attribute from-attr-path="#SOURCE:@integer" to-attr-path="#SELECT:@selectID"/>
			<doc:set-attribute from-value="INT" to-attr-path="#SELECT:@type"/>
			<flow:exit-flow return-path="#SELECT:"/>
		</flow:action>
		<flow:action name="CANCEL">
			<doc:set-attribute from-value="CANCEL" to-attr-path="#SELECT:@BUT"/>
			<flow:exit-flow return-path="#SELECT:"/>
		</flow:action>
		<flow:action name="on-show">
			<doc:set-attribute to-attr-path="#SOURCE:@integer" from-attr-path="#SOURCE:@selectID"/>
		</flow:action>
	</flow:form>
</flow:flow>
