<flow:flow xmlns:flow="nomad_engine.flow" name="NucleusRH.Base.Evaluacion2.Evaluacion.EVALUACION.flow">
	<flow:info label="NucleusRH.Base.Evaluacion2.Evaluacion.EVALUACION.flow"/>
	<flow:declare/>
	<flow:main doc="PARAMIN">
		<flow:action name="EDIT_SHOW">
			<flow:open-form mode="EDIT_SHOW" doc-path="#PARAMIN:" form-class="NucleusRH.Base.Evaluacion2.Evaluacion.EVALUACION.MAIN.STD_REG.form"/>
		</flow:action>
		<flow:action name="CERRAR">
			<flow:open-form doc-path="#PARAMIN:" mode="CERRAR" form-class="NucleusRH.Base.Evaluacion2.Evaluacion.EVALUACION.MAIN.STD_REG.form"/>
		</flow:action>
		<flow:action name="SHOW">
			<flow:open-form doc-path="#PARAMIN:" mode="SHOW" form-class="NucleusRH.Base.Evaluacion2.Evaluacion.EVALUACION.MAIN.STD_REG.form"/>
		</flow:action>
		<flow:action name="APROBAR">
			<flow:open-form doc-path="#PARAMIN:" mode="APROBAR" form-class="NucleusRH.Base.Evaluacion2.Evaluacion.EVALUACION.MAIN.STD_REG.form"/>
		</flow:action>
		<flow:action name="EDIT">
			<flow:open-form doc-path="#PARAMIN:" mode="EDIT" form-class="NucleusRH.Base.Evaluacion2.Evaluacion.EVALUACION.MAIN.STD_REG.form"/>
		</flow:action>
		<flow:action name="PORTAL">
			<flow:open-form mode="PORTAL" doc-path="#PARAMIN:" form-class="NucleusRH.Base.Evaluacion2.Evaluacion.EVALUACION.MAIN.STD_REG.form"/>
		</flow:action>
		<flow:action name="NOEDIT">
			<flow:open-form mode="NOEDIT" doc-path="#PARAMIN:" form-class="NucleusRH.Base.Evaluacion2.Evaluacion.EVALUACION.MAIN.STD_REG.form"/>
		</flow:action>
	</flow:main>
	<flow:form mode="EDIT" name="NucleusRH.Base.Evaluacion2.Evaluacion.EVALUACION.MAIN.STD_REG.form:EDIT" form-class="NucleusRH.Base.Evaluacion2.Evaluacion.EVALUACION.MAIN.STD_REG.form" doc="SOURCE">
		<flow:action name="BACK">
			<flow:exit-flow return-path="#SOURCE:"/>
		</flow:action>
	</flow:form>
	<flow:form name="NucleusRH.Base.Evaluacion2.Evaluacion.EVALUACION.MAIN.STD_REG.form:APROBAR" mode="APROBAR" form-class="NucleusRH.Base.Evaluacion2.Evaluacion.EVALUACION.MAIN.STD_REG.form" doc="SOURCE">
		<flow:action name="BACK">
			<flow:exit-flow return-path="#SOURCE:"/>
		</flow:action>
	</flow:form>
	<flow:form name="NucleusRH.Base.Evaluacion2.Evaluacion.EVALUACION.MAIN.STD_REG.form:SHOW" mode="SHOW" form-class="NucleusRH.Base.Evaluacion2.Evaluacion.EVALUACION.MAIN.STD_REG.form" doc="SOURCE">
		<flow:action name="BACK">
			<flow:exit-flow return-path="#SOURCE:"/>
		</flow:action>
	</flow:form>
	<flow:form name="NucleusRH.Base.Evaluacion2.Evaluacion.EVALUACION.MAIN.STD_REG.form:CERRAR" mode="CERRAR" form-class="NucleusRH.Base.Evaluacion2.Evaluacion.EVALUACION.MAIN.STD_REG.form" doc="SOURCE">
		<flow:action name="BACK">
			<flow:exit-flow return-path="#SOURCE:"/>
		</flow:action>
	</flow:form>
	<flow:form name="NucleusRH.Base.Evaluacion2.Evaluacion.EVALUACION.MAIN.STD_REG.form:EDIT_SHOW" mode="EDIT_SHOW" form-class="NucleusRH.Base.Evaluacion2.Evaluacion.EVALUACION.MAIN.STD_REG.form" doc="SOURCE">
		<flow:action name="BACK">
			<flow:exit-flow return-path="#SOURCE:"/>
		</flow:action>
	</flow:form>
	<flow:form name="NucleusRH.Base.Evaluacion2.Evaluacion.EVALUACION.MAIN.STD_REG.form:PORTAL" mode="PORTAL" form-class="NucleusRH.Base.Evaluacion2.Evaluacion.EVALUACION.MAIN.STD_REG.form" doc="SOURCE">
		<flow:action name="BACK">
			<flow:close-form/>
		</flow:action>
	</flow:form>
	<flow:form name="NucleusRH.Base.Evaluacion2.Evaluacion.EVALUACION.MAIN.STD_REG.form_NOEDIT" mode="NOEDIT" form-class="NucleusRH.Base.Evaluacion2.Evaluacion.EVALUACION.MAIN.STD_REG.form" doc="SOURCE">
		<flow:action name="BACK">
			<flow:close-form/>
		</flow:action>
	</flow:form>
</flow:flow>
