<flow:flow xmlns:flow="nomad_engine.flow" xmlns:doc="nomad_engine.doc" extends="NucleusRH.Base.Evaluacion2.Evaluacion.EVALUACION.EVALUACIONES.STD.autoflow" default_action="LIST" name="NucleusRH.Base.Evaluacion2.Evaluacion.EVALUACION.EVALUACIONES.STD.flow">
	<flow:info label="NucleusRH.Base.Evaluacion2.Evaluacion.EVALUACION.EVALUACIONES.STD.autoflow"/>
	<flow:main doc="SOURCE">
		<flow:action name="PORTAL">
			<doc:set-attribute from-attr-path="#SOURCE:@PARENT" to-attr-path="#SELECT:@PARENT"/>
			<flow:open-form mode="PORTAL" parent-doc-path="#SOURCE:" doc-path="#SELECT:" form-class="NucleusRH.Base.Evaluacion2.Evaluacion.EVALUACION.EVALUACIONES.STD_LIST.form"/>
		</flow:action>
	</flow:main>
	<flow:form mode="PORTAL" parent-doc="PARENT" doc="SOURCE" form-class="NucleusRH.Base.Evaluacion2.Evaluacion.EVALUACION.EVALUACIONES.STD_LIST.form" name="NucleusRH.Base.Evaluacion2.Evaluacion.EVALUACION.EVALUACIONES.STD_LIST.form:LIST">
		<flow:action name="on-show"/>
		<flow:action name="BACK">
			<flow:close-form/>
		</flow:action>
		<flow:action name="SHOW">
			<flow:open-form mode="SHOW" parent-doc-path="#SOURCE:" doc-path="#SOURCE:" form-class="NucleusRH.Base.Evaluacion2.Evaluacion.EVALUACION.EVALUACIONES.STD_REG.autoform"/>
		</flow:action>
		<flow:action name="ADD">
			<flow:open-form mode="NEW" parent-doc-path="#SOURCE:" doc-path="#SOURCE:" form-class="NucleusRH.Base.Evaluacion2.Evaluacion.EVALUACION.EVALUACIONES.STD_REG.autoform"/>
		</flow:action>
		<flow:action name="EDIT">
			<flow:open-form mode="EDIT" parent-doc-path="#SOURCE:" doc-path="#SOURCE:" form-class="NucleusRH.Base.Evaluacion2.Evaluacion.EVALUACION.EVALUACIONES.STD_REG.autoform"/>
		</flow:action>
		<flow:action name="ADMIN">
			<doc:new-object doc="DDO" class="NucleusRH.Base.Evaluacion2.Evaluacion.EVALUACION"/>
			<doc:load-object id-path="#SOURCE:@ID" doc="DDO" load-child="1" load-all="1" class="NucleusRH.Base.Evaluacion2.Evaluacion.EVALUACION"/>
			<flow:open-form mode="SHOW" parent-doc-path="#DDO:" doc-path="#DDO:" form-class="Nomad.Base.Security.form"/>
		</flow:action>
		<flow:action name="DELETE">
			<flow:call-action action="INT-DELETE"/>
		</flow:action>
		<flow:action name="INT-DELETE">
			<doc:new-object doc="DDO" class="NucleusRH.Base.Evaluacion2.Evaluacion.EVALUACION"/>
			<doc:load-object id-path="#SOURCE:@ID" doc="DDO" load-child="1" load-all="1" class="NucleusRH.Base.Evaluacion2.Evaluacion.EVALUACION"/>
			<doc:delete-object doc-path="#DDO:"/>
			<doc:save-object doc="DDO" class="NucleusRH.Base.Evaluacion2.Evaluacion.EVALUACION"/>
		</flow:action>
	</flow:form>
	<flow:form mode="SELECT" parent-doc="PARENT" doc="SOURCE" form-class="NucleusRH.Base.Evaluacion2.Evaluacion.EVALUACION.EVALUACIONES.STD_LIST.form" name="NucleusRH.Base.Evaluacion2.Evaluacion.EVALUACION.EVALUACIONES.STD_LIST.form:SELECT">
		<flow:action name="on-show"/>
		<flow:action name="BACK">
			<doc:set-attribute from-value="1" to-attr-path="#SOURCE:@cancel"/>
			<flow:exit-flow return-path="#SOURCE:"/>
		</flow:action>
		<flow:action name="ACCEPT">
			<doc:set-attribute from-value="0" to-attr-path="#SOURCE:@cancel"/>
			<flow:exit-flow return-path="#SOURCE:"/>
		</flow:action>
	</flow:form>
	<flow:form mode="SHOW" parent-doc="PARENT" doc="SOURCE" form-class="NucleusRH.Base.Evaluacion2.Evaluacion.EVALUACION.EVALUACIONES.STD_REG.autoform" name="NucleusRH.Base.Evaluacion2.Evaluacion.EVALUACION.EVALUACIONES.STD_REG.autoform:SHOW">
		<flow:action name="on-show"/>
		<flow:action name="ADMIN">
			<flow:open-form mode="SHOW" parent-doc-path="#DDO:" doc-path="#DDO:" form-class="Nomad.Base.Security.form"/>
		</flow:action>
		<flow:action name="on-open">
			<flow:call-action action="REFRESH"/>
		</flow:action>
		<flow:action name="REFRESH">
			<doc:new-object doc="DDO" class="NucleusRH.Base.Evaluacion2.Evaluacion.EVALUACION"/>
			<doc:load-object id-path="#SOURCE:@ID" doc="DDO" load-child="0" load-all="1" class="NucleusRH.Base.Evaluacion2.Evaluacion.EVALUACION"/>
		</flow:action>
		<flow:action name="BACK">
			<flow:close-form/>
		</flow:action>
		<flow:action name="EDIT">
			<flow:close-form next-action="EDIT"/>
		</flow:action>
		<flow:action name="DELETE">
			<flow:close-form next-action="DELETE"/>
		</flow:action>
	</flow:form>
	<flow:form mode="EDIT" parent-doc="PARENT" doc="SOURCE" form-class="NucleusRH.Base.Evaluacion2.Evaluacion.EVALUACION.EVALUACIONES.STD_REG.autoform" name="NucleusRH.Base.Evaluacion2.Evaluacion.EVALUACION.EVALUACIONES.STD_REG.autoform:EDIT">
		<flow:action name="on-show"/>
		<flow:action name="on-open">
			<flow:call-action action="REFRESH"/>
		</flow:action>
		<flow:action name="REFRESH">
			<doc:new-object doc="DDO" class="NucleusRH.Base.Evaluacion2.Evaluacion.EVALUACION"/>
			<doc:load-object id-path="#SOURCE:@ID" doc="DDO" load-child="0" load-all="1" class="NucleusRH.Base.Evaluacion2.Evaluacion.EVALUACION"/>
		</flow:action>
		<flow:action name="CANCEL">
			<flow:close-form/>
		</flow:action>
		<flow:action name="SAVE">
			<flow:call-action action="INT-VALIDATE"/>
			<flow:call-action action="INT-SAVE"/>
			<flow:close-form/>
		</flow:action>
		<flow:action name="DELETE">
			<flow:close-form next-action="DELETE"/>
		</flow:action>
		<flow:action name="INT-VALIDATE"/>
		<flow:action name="INT-SAVE">
			<flow:exec-method class="NucleusRH.Base.Evaluacion2.Evaluacion.EVALUACION" method="">
				<flow:param doc="DDO" type="Nomad.NSystem.Object" mode="in" name="DDO"/>
			</flow:exec-method>
		</flow:action>
	</flow:form>
	<flow:form mode="NEW" parent-doc="PARENT" doc="SOURCE" form-class="NucleusRH.Base.Evaluacion2.Evaluacion.EVALUACION.EVALUACIONES.STD_REG.autoform" name="NucleusRH.Base.Evaluacion2.Evaluacion.EVALUACION.EVALUACIONES.STD_REG.autoform:NEW">
		<flow:action name="on-show"/>
		<flow:action name="on-open">
			<flow:call-action action="REFRESH"/>
		</flow:action>
		<flow:action name="REFRESH">
			<flow:call-action action="INT-CREATE"/>
		</flow:action>
		<flow:action name="CANCEL">
			<flow:close-form/>
		</flow:action>
		<flow:action name="SAVE">
			<flow:call-action action="INT-VALIDATE"/>
			<flow:call-action action="INT-SAVE"/>
			<flow:close-form/>
		</flow:action>
		<flow:action name="INT-CREATE">
			<doc:new-object doc="DDO" class="NucleusRH.Base.Evaluacion2.Evaluacion.EVALUACION"/>
		</flow:action>
		<flow:action name="INT-VALIDATE"/>
		<flow:action name="INT-SAVE">
			<flow:exec-method class="NucleusRH.Base.Evaluacion2.Evaluacion.EVALUACION" method="">
				<flow:param doc="DDO" type="Nomad.NSystem.Object" mode="in" name="DDO"/>
			</flow:exec-method>
		</flow:action>
	</flow:form>
	<flow:form mode="SHOW" name="Nomad.Base.Security.form:SHOW" form-class="Nomad.Base.Security.form" doc="SOURCE">
		<flow:action name="on-show"/>
		<flow:action name="BACK">
			<flow:close-form/>
		</flow:action>
	</flow:form>
</flow:flow>
