<flow:flow xmlns:flow="nomad_engine.flow" xmlns:doc="nomad_engine.doc" xmlns:qry="nomad_engine.qry" name="NucleusRH.Base.Evaluacion2.Evaluacion.Reporte.flow" default_action="initialize2" extends="Nomad.base.HTML_XLS.flow">
	<flow:info label="Flow para Reportes 001 y 003 EXCEL / HTML">
		Flow para Nomad.Base.Liquidacion.ListadoConceptosPorPersonas
	</flow:info>
	<flow:declare>
		<doc:define name="FILTERDATA">
			<FILTRO>
				<PERSONAS/>
				<EVENTOS/>
			</FILTRO>
		</doc:define>
		<qry:define declare="&lt;FILTRO gpers=&quot;&quot; empresa=&quot;1&quot; evento=&quot;1&quot; activos=&quot;&quot; nombre=&quot;&quot; documento=&quot;&quot; sexo=&quot;&quot; grupo_sanguineo=&quot;&quot; legajo_desde=&quot;&quot; &#13;&#10;&#9;&#9;&#9;&#9;legajo_hasta=&quot;&quot; oi_indic_activo=&quot;&quot; egresado=&quot;&quot; oi_forma_pago=&quot;&quot; oi_tipo_personal=&quot;&quot; oi_centro_costo=&quot;&quot; &#13;&#10;&#9;&#9;&#9;&#9;oi_categoria=&quot;&quot; oi_ubicacion=&quot;&quot; oi_estructura=&quot;&quot; escructura_childs=&quot;&quot; oi_afjp=&quot;&quot; oi_obra_social=&quot;&quot; &#13;&#10;&#9;&#9;&#9;&#9;oi_sindicato=&quot;&quot; supervisor=&quot;&quot; evaluador=&quot;&quot;&gt;&#13;&#10;&#9;&lt;PERSONAS&gt;&#13;&#10;    &lt;ROW VALUES=&quot;11566,11567,11568,11569,11570,11571,11573,11574,11575,11576,11578,11580,11581,11582,11583,11579,13885,13886,13887,13888,13889,13890,13891,13892,13895,13921,13922,13923,13924,13925,13926,13927,13928,13929,13930,13931,13932,13933,13935,11565&quot; /&gt;&#13;&#10;  &lt;/PERSONAS&gt;&#13;&#10;&lt;/FILTRO&gt;&#13;&#10;" name="REPORTE-NOMBRE">
			<qry:main doc="SOURCE">
				<REP>
					<qry:insert-select name="SQL" doc-path="#SOURCE:/FILTRO"/>
				</REP>
			</qry:main>
			<qry:select name="SQL" doc="SOURCE">
				<qry:xquery>
					for $r in SQL('
				SELECT
					T.d_reporte
				FROM
					EDD01_TIPOS_EVAL as T,
					EDD02_EVENTOS as E
				WHERE
					T.oi_tipo_eval=E.oi_tipo_eval and
					E.oi_evento={#SOURCE:@evento}
			')/ROWS/ROW
				</qry:xquery>
				<qry:out>
					<qry:attribute name="nombre" value="substring_before(translate($r/@d_reporte,'.PLA_','.SHW_'),'.xml')"/>
				</qry:out>
			</qry:select>
		</qry:define>
		<doc:define name="REPORTE-NOMBRE"/>
		<doc:define name="FILTERDATA1">
			<FILTRO>
				<PERSONAS/>
				<EVENTOS/>
			</FILTRO>
		</doc:define>
		<doc:define name="FILTERDATA2">
			<FILTRO>
				<PERSONAS/>
				<EVENTOS/>
			</FILTRO>
		</doc:define>
		<doc:define name="FILTERDATA3">
			<FILTRO>
				<PERSONAS/>
				<EVENTOS/>
			</FILTRO>
		</doc:define>
	</flow:declare>
	<flow:main doc="SOURCE">
		<flow:action name="lista-evaluaciones">
			<flow:open-form form-class="NucleusRH.Base.Evaluacion2.Evaluacion.REPORTE-FILTRO.form" mode="FILTER2" doc-path="#FILTERDATA:"/>
		</flow:action>
		<flow:action name="lista-eventos">
			<flow:open-form doc-path="#FILTERDATA1:" mode="FILTER2" form-class="NucleusRH.Base.Evaluacion2.Evaluacion.REPORTE-FILTRO2.form"/>
		</flow:action>
		<flow:action name="lista-evaluaciones-360">
			<flow:open-form doc-path="#FILTERDATA3:" mode="FILTER3" form-class="NucleusRH.Base.Evaluacion2.Evaluacion.REPORTE-FILTRO3.form"/>
		</flow:action>
		<flow:action name="lista-resultados">
			<flow:open-form form-class="NucleusRH.Base.Evaluacion2.Evaluacion.REPORTE-FILTRO4.form" mode="FILTER2" doc-path="#FILTERDATA:"/>
		</flow:action>
	</flow:main>
	<flow:form form-class="NucleusRH.Base.Evaluacion2.Evaluacion.REPORTE-FILTRO.form" name="NucleusRH.Base.Evaluacion2.Evaluacion.REPORTE-FILTRO.form:FILTER2" mode="FILTER2" doc="SOURCE">
		<flow:action name="ACCEPT">
			<flow:call-action action="Save-FILTER"/>
			<flow:exec-method priority="6" class="Nomad.Base.Report.GeneralReport.REPORT" out-attr-path="#BATCHDOC:@batch-id" method="ExecReportHTML">
				<flow:param value="NucleusRH.Base.Evaluacion2.Evaluaciones.rpt" type="Nomad.NSystem.String" mode="in" name="ReportName"/>
				<flow:param doc-path="#FILTERDATA:" type="Nomad.NSystem.Proxy.NomadXML" mode="in" name="xmlParam"/>
			</flow:exec-method>
			<doc:set-attribute from-value="001 - Consulta de Evaluaciones" to-attr-path="#BATCHDOC:@title"/>
			<flow:open-form parent-doc-path="#SOURCE:" mode="SHOW" form-class="Nomad.base.HTML_XLS.form" doc-path="#BATCHDOC:"/>
		</flow:action>
		<flow:action name="BACK">
			<flow:close-form/>
		</flow:action>
		<flow:action name="Load-FILTER">
			<flow:load-user-data name="FILTER-NucleusRH.Base.Evaluacion2.Evaluacion.Reporte.Evaluaciones" doc="FILTERDATA"/>
		</flow:action>
		<flow:action name="Save-FILTER">
			<flow:save-user-data name="FILTER-NucleusRH.Base.Evaluacion2.Evaluacion.Reporte.Evaluaciones" doc-path="#FILTERDATA:"/>
		</flow:action>
		<flow:action name="on-show">
			<flow:call-action action="Load-FILTER"/>
		</flow:action>
	</flow:form>
	<flow:form mode="FILTER2" form-class="NucleusRH.Base.Evaluacion2.Evaluacion.REPORTE-FILTRO2.form" name="NucleusRH.Base.Evaluacion2.Evaluacion.REPORTE-FILTRO2.form:FILTER2" doc="SOURCE">
		<flow:action name="ACCEPT">
			<flow:call-action action="Save-FILTER"/>
			<flow:log text-path="#FILTERDATA1:" text="emig"/>
			<flow:exec-method priority="6" class="Nomad.Base.Report.GeneralReport.REPORT" out-attr-path="#BATCHDOC:@batch-id" method="ExecReportHTML">
				<flow:param value="NucleusRH.Base.Evaluacion2.EvaluacionesPorLegajos.rpt" type="Nomad.NSystem.String" mode="in" name="ReportName"/>
				<flow:param doc-path="#FILTERDATA1:" type="Nomad.NSystem.Proxy.NomadXML" mode="in" name="xmlParam"/>
			</flow:exec-method>
			<doc:set-attribute from-value="003 - Consulta de Evaluaciones por Legajos" to-attr-path="#BATCHDOC:@title"/>
			<flow:open-form parent-doc-path="#SOURCE:" form-class="Nomad.base.HTML_XLS.form" mode="SHOW" doc-path="#BATCHDOC:"/>
		</flow:action>
		<flow:action name="BACK">
			<flow:close-form/>
		</flow:action>
		<flow:action name="Load-FILTER">
			<flow:load-user-data name="FILTER-NucleusRH.Base.Evaluacion2.Evaluacion.Reporte.EvaPorLegajos" doc="FILTERDATA1"/>
		</flow:action>
		<flow:action name="Save-FILTER">
			<flow:save-user-data name="FILTER-NucleusRH.Base.Evaluacion2.Evaluacion.Reporte.EvaPorLegajos" doc-path="#FILTERDATA1:"/>
		</flow:action>
		<flow:action name="on-show">
			<flow:call-action action="Load-FILTER"/>
			<flow:log text-path="#FILTERDATA:" text="chuekflowsancor"/>
		</flow:action>
	</flow:form>
	<flow:form form-class="NucleusRH.Base.Evaluacion2.Evaluacion.REPORTE-FILTRO3.form" mode="FILTER3" name="NucleusRH.Base.Evaluacion2.Evaluacion.REPORTE-FILTRO3.form:FILTER3" doc="SOURCE">
		<flow:action name="ACCEPT">
			<flow:call-action action="Save-FILTER"/>
			<flow:log text-path="#FILTERDATA3:" text="luchoFilter2"/>
			<flow:exec-method priority="6" class="Nomad.Base.Report.GeneralReport.REPORT" out-attr-path="#BATCHDOC:@batch-id" method="ExecReportHTML">
				<flow:param value="NucleusRH.Base.Evaluacion2.EvaluacionesPorLegajos360.rpt" type="Nomad.NSystem.String" mode="in" name="ReportName"/>
				<flow:param doc-path="#FILTERDATA3:" type="Nomad.NSystem.Proxy.NomadXML" mode="in" name="xmlParam"/>
			</flow:exec-method>
			<doc:set-attribute from-value="004 - Listado de evaluadores por legajo 360" to-attr-path="#BATCHDOC:@title"/>
			<flow:open-form parent-doc-path="#SOURCE:" form-class="Nomad.base.HTML_XLS.form" mode="SHOW" doc-path="#BATCHDOC:"/>
		</flow:action>
		<flow:action name="BACK">
			<flow:close-form/>
		</flow:action>
		<flow:action name="Load-FILTER">
			<flow:load-user-data name="FILTER-NucleusRH.Base.Evaluacion2.Evaluacion.Reporte.EvaPorLegajos360" doc="FILTERDATA1"/>
		</flow:action>
		<flow:action name="Save-FILTER">
			<flow:save-user-data name="FILTER-NucleusRH.Base.Evaluacion2.Evaluacion.Reporte.EvaPorLegajos360" doc-path="#FILTERDATA:"/>
		</flow:action>
		<flow:action name="on-show">
			<flow:call-action action="Load-FILTER"/>
			<flow:log text-path="#FILTERDATA:" text="lucho"/>
		</flow:action>
	</flow:form>
	<flow:form form-class="NucleusRH.Base.Evaluacion2.Evaluacion.REPORTE-FILTRO4.form" name="NucleusRH.Base.Evaluacion2.Evaluacion.REPORTE-FILTRO4.form:FILTER2" mode="FILTER2" doc="SOURCE">
		<flow:action name="ACCEPT">
			<flow:call-action action="Save-FILTER"/>
			<flow:exec-method priority="6" class="Nomad.Base.Report.GeneralReport.REPORT" out-attr-path="#BATCHDOC:@batch-id" method="ExecReportHTML">
				<flow:param value="NucleusRH.Base.Evaluacion2.ResultadosPorEvaluacion.rpt" type="Nomad.NSystem.String" mode="in" name="ReportName"/>
				<flow:param doc-path="#FILTERDATA:" type="Nomad.NSystem.Proxy.NomadXML" mode="in" name="xmlParam"/>
			</flow:exec-method>
			<doc:set-attribute from-value="005 - Resultados por Evaluaci&#243;n" to-attr-path="#BATCHDOC:@title"/>
			<flow:open-form parent-doc-path="#SOURCE:" mode="SHOW" form-class="Nomad.base.HTML_XLS.form" doc-path="#BATCHDOC:"/>
		</flow:action>
		<flow:action name="BACK">
			<flow:close-form/>
		</flow:action>
		<flow:action name="Load-FILTER">
			<flow:load-user-data name="FILTER-NucleusRH.Base.Evaluacion2.Evaluacion.Reporte.Evaluaciones" doc="FILTERDATA"/>
		</flow:action>
		<flow:action name="Save-FILTER">
			<flow:save-user-data name="FILTER-NucleusRH.Base.Evaluacion2.Evaluacion.Reporte.Evaluaciones" doc-path="#FILTERDATA:"/>
		</flow:action>
		<flow:action name="on-show">
			<flow:call-action action="Load-FILTER"/>
		</flow:action>
	</flow:form>
</flow:flow>
