<flow:flow xmlns:flow="nomad_engine.flow" xmlns:qry="nomad_engine.qry" xmlns:doc="nomad_engine.doc" extends="NucleusRH.Base.Configuracion.Progs.PROG.MAIN.STD.flow" name="NucleusRH.Base.Configuracion.Alertas.PROG.flow" description="Flow para responder las acciones sobre las alertas." default_action="LIST">
	<flow:info label="Flow para responder las acciones sobre las alertas."/>
	<flow:declare>
		<qry:define declare="&lt;DATA PARENT=&quot;301&quot; /&gt;" name="QRY_FIND">
			<qry:main doc="SOURCE">
				<DATA>
					<qry:insert-select name="SQL1" doc-path="#SOURCE:."/>
				</DATA>
			</qry:main>
			<qry:select name="SQL1" doc="SOURCE">
				<qry:xquery>
					for $r in SQL('
select 
	A.oi_prog 
from 
	CFG01_ALERTAS as A
where 
	A.oi_alerta={$SOURCE/@PARENT}
')/ROWS/ROW
				</qry:xquery>
				<qry:out>
					<qry:attribute name="ID" value="$r/@oi_prog"/>
				</qry:out>
			</qry:select>
		</qry:define>
	</flow:declare>
	<flow:main doc="SOURCE">
		<flow:action name="SHOW">
			<doc:load-qry input-doc-path="#SOURCE:" qry="QRY_FIND" output-doc="SELECT"/>
			<flow:open-form form-class="NucleusRH.Base.Configuracion.Progs.PROG.MAIN.STD_REG.autoform" mode="SHOW" parent-doc-path="#SOURCE:" doc-path="#SELECT:"/>
		</flow:action>
		<flow:action name="EDIT">
			<doc:load-qry input-doc-path="#SOURCE:" qry="QRY_FIND" output-doc="SELECT"/>
			<flow:open-form form-class="NucleusRH.Base.Configuracion.Progs.PROG.MAIN.STD_REG.autoform" mode="EDIT" parent-doc-path="#SOURCE:" doc-path="#SELECT:"/>
		</flow:action>
		<flow:action name="ACTIVAR">
			<doc:load-qry input-doc-path="#SOURCE:" qry="QRY_FIND" output-doc="SELECT"/>
			<flow:exec-method class="NucleusRH.Base.Configuracion.Progs.PROG" method="Activate">
				<flow:param attr-path="#SELECT:@ID" name="pOI" mode="in" type="Nomad.NSystem.String"/>
			</flow:exec-method>
			<flow:exit-flow return-path="#SOURCE:"/>
		</flow:action>
		<flow:action name="DETENER">
			<doc:load-qry input-doc-path="#SOURCE:" qry="QRY_FIND" output-doc="SELECT"/>
			<flow:exec-method method="Inactivate" class="NucleusRH.Base.Configuracion.Progs.PROG">
				<flow:param attr-path="#SELECT:@ID" name="pOI" mode="in" type="Nomad.NSystem.String"/>
			</flow:exec-method>
			<flow:exit-flow return-path="#SOURCE:"/>
		</flow:action>
		<flow:action name="TEST">
			<doc:load-qry input-doc-path="#SOURCE:" qry="QRY_FIND" output-doc="SELECT"/>
			<flow:exec-method method="Execute" class="NucleusRH.Base.Configuracion.Progs.PROG">
				<flow:param attr-path="#SELECT:@ID" name="pOI" mode="in" type="Nomad.NSystem.String"/>
			</flow:exec-method>
			<flow:exit-flow return-path="#SOURCE:"/>
		</flow:action>
	</flow:main>
</flow:flow>
