<flow:flow xmlns:flow="nomad_engine.flow" xmlns:qry="nomad_engine.qry" name="NucleusRH.Base.Capacitacion.Evaluaciones.FACTOR_EVAL.guia.flow" extends="Nomad.simple.guia.flow">
	<flow:info label="Flow guia para NucleusRH.Base.Capacitacion.Evaluaciones.FACTOR_EVAL.flow"/>
	<flow:main doc="SOURCE">
		<flow:action name="OPEN-GUIA">
			<flow:open-form parent-doc-path="#SOURCE:" doc-path="#RS:" mode="SHOW" form-class="NucleusRH.Base.Capacitacion.Evaluaciones.FACTOR_EVAL.guia.form"/>
		</flow:action>
	</flow:main>
	<flow:declare>
		<qry:define name="X2C">
			<qry:main doc="SOURCE">
				<qry:element name="ROW">
					<qry:insert-select doc-path="#SOURCE:" name="RS1"/>
				</qry:element>
			</qry:main>
			<qry:select doc="SOURCE" name="RS1">
				<qry:xquery>
					for $r in sql('
				SELECT t.oi_factor_eval as ID, 
				t.c_factor as CODE, 
				t.d_factor as TEXT, SEC.policy  
				FROM CYD12_FACTORES_EVAL as t, NMD_SECURITY(class=\'NucleusRH.Base.Capacitacion.Evaluaciones.FACTORES_EVAL\') as SEC 
				JOIN t.oi_factor_eval LEFT OUTER SEC.id  
				WHERE t.oi_factor_eval={#SOURCE:helper-mess/@ID} 
				AND t.oi_evaluacion ={#SOURCE:helper-mess/@oi_evaluacion} 
				ORDER BY CODE asc
			')/ROWS/ROW
				</qry:xquery>
				<qry:out>
					<qry:attribute value="$r/@ID" name="id"/>
					<qry:attribute value="$r/@ID" name="value"/>
					<qry:attribute value="$r/@CODE" name="code"/>
					<qry:attribute value="$r/@TEXT" name="text"/>
				</qry:out>
			</qry:select>
		</qry:define>
		<qry:define declare="&lt;helper-mess oi_evaluacion=&quot;1&quot; text=&quot;&quot; id=&quot;&quot; code=&quot;&quot; /&gt;" name="C2X">
			<qry:main doc="SOURCE">
				<qry:append-doc doc-path="#SOURCE:helper-mess" name="INDOC"/>
				<qry:element name="ROW">
					<qry:insert-select doc-path="#SOURCE:" name="RS1"/>
				</qry:element>
			</qry:main>
			<qry:select doc="SOURCE" name="RS1">
				<qry:xquery>
					for $r in sql('
				SELECT t.oi_factor_eval as ID, 
				t.c_factor as CODE, 
				t.d_factor as TEXT, 
				SEC.policy  
				FROM CYD12_FACTORES_EVAL as t, NMD_SECURITY(class=\'NucleusRH.Base.Capacitacion.Evaluaciones.FACTORES_EVAL\') as SEC 
				JOIN t.oi_factor_eval LEFT OUTER SEC.id  
				WHERE t.c_factor={substring_before(#INDOC:@CODE,\'-\')}  
				AND t.oi_evaluacion ={#SOURCE:helper-mess/@oi_evaluacion} 
				ORDER BY CODE asc
			')/ROWS/ROW
				</qry:xquery>
				<qry:out>
					<qry:attribute value="$r/@policy" name="policy"/>
					<qry:attribute value="''" name="SUB_SEARCH"/>
					<qry:attribute value="''" name="PARENTID"/>
					<qry:attribute value="$r/@ID" name="id"/>
					<qry:attribute value="$r/@ID" name="value"/>
					<qry:attribute value="$r/@CODE" name="code"/>
					<qry:attribute value="$r/@TEXT" name="text"/>
				</qry:out>
			</qry:select>
		</qry:define>
		<qry:define declare="&lt;helper-mess oi_evaluacion=&quot;1&quot; text=&quot;&quot; id=&quot;&quot; code=&quot;&quot; /&gt;" name="HELP">
			<qry:main doc="SOURCE">
				<qry:element name="ROWS">
					<qry:insert-select doc-path="#SOURCE:" name="RS1"/>
				</qry:element>
			</qry:main>
			<qry:select doc="SOURCE" name="RS1">
				<qry:xquery>
					for $r in sql('
				SELECT t.oi_factor_eval as ID, 
				t.c_factor as CODE, 
				t.d_factor as TEXT, 
				SEC.policy  
				FROM CYD12_FACTORES_EVAL as t, NMD_SECURITY(class=\'NucleusRH.Base.Capacitacion.Evaluaciones.FACTORES_EVAL\') as SEC 
				JOIN t.oi_factor_eval LEFT OUTER SEC.id  
				WHERE t.oi_evaluacion ={#SOURCE:helper-mess/@oi_evaluacion} 
				ORDER BY CODE asc
			')/ROWS/ROW
				</qry:xquery>
				<qry:out>
					<qry:element name="ROW">
						<qry:attribute value="$r/@ID" name="id"/>
						<qry:attribute value="$r/@ID" name="value"/>
						<qry:attribute value="$r/@CODE" name="code"/>
						<qry:attribute value="$r/@TEXT" name="text"/>
						<qry:attribute value="$r/@policy" name="policy"/>
					</qry:element>
				</qry:out>
			</qry:select>
		</qry:define>
	</flow:declare>
	<flow:form extends="nomad.simple.guia.form:SHOW" parent-doc="INVAL" doc="SOURCE" mode="SHOW" name="NucleusRH.Base.Capacitacion.Evaluaciones.FACTOR_EVAL.guia.form:SHOW" form-class="NucleusRH.Base.Capacitacion.Evaluaciones.FACTOR_EVAL.guia.form"/>
</flow:flow>
