<flow:flow extends="NucleusRH.Base.Capacitacion.Cursos.CURSO.guia.autoflow" xmlns:doc="nomad_engine.form" xmlns:qry="nomad_engine.form" xmlns:flow="nomad_engine.form" name="NucleusRH.Base.Capacitacion.Cursos.CURSO.guia">
	<flow:info label="Flow guia para NucleusRH.Base.Capacitacion.Cursos.CURSO"/>
	<flow:declare>
		<qry:define name="X2C">
			<qry:main doc="SOURCE">
				<qry:element name="ROW">
					<qry:insert-select doc-path="#SOURCE:" name="RS1"/>
				</qry:element>
			</qry:main>
			<qry:select doc="SOURCE" name="RS1">
				<qry:xquery>
					for $r in sql('
				SELECT CYD01_CURSOS.oi_curso AS ID, 
				ORG06_CURSOS.c_curso AS CODE, 
				ORG06_CURSOS.d_curso AS TEXT 
				FROM CYD01_CURSOS, ORG06_CURSOS 
				JOIN CYD01_CURSOS.oi_curso INNER ORG06_CURSOS.oi_curso
				WHERE CYD01_CURSOS.oi_curso = {#SOURCE:helper-mess/@ID}				
			')/ROWS/ROW
				</qry:xquery>
				<qry:out>
					<qry:attribute type="Nomad.NSystem.Int" value="$r/@ID" name="id"/>
					<qry:attribute type="Nomad.NSystem.Int" value="$r/@ID" name="value"/>
					<qry:attribute type="Nomad.NSystem.String" value="$r/@CODE" name="code"/>
					<qry:attribute type="Nomad.NSystem.String" value="$r/@TEXT" name="text"/>
				</qry:out>
			</qry:select>
		</qry:define>
		<qry:define name="C2X">
			<qry:main doc="SOURCE">
				<qry:append-doc doc-path="#SOURCE:helper-mess" name="INDOC"/>
				<qry:element name="ROW">
					<qry:insert-select doc-path="#SOURCE:" name="RS1"/>
				</qry:element>
			</qry:main>
			<qry:select doc="SOURCE" name="RS1">
				<qry:xquery>
					for $r in sql('
				SELECT CYD01_CURSOS.oi_curso AS ID, 
				ORG06_CURSOS.c_curso AS CODE, 
				ORG06_CURSOS.d_curso AS TEXT 
				FROM ORG06_CURSOS, CYD01_CURSOS 
				JOIN CYD01_CURSOS.oi_curso INNER ORG06_CURSOS.oi_curso  
				WHERE ORG06_CURSOS.c_curso={substring_before(#INDOC:@CODE,\'-\')}				
			')/ROWS/ROW
				</qry:xquery>
				<qry:out>
					<qry:attribute type="Nomad.NSystem.String" value="''" name="SUB_SEARCH"/>
					<qry:attribute type="Nomad.NSystem.String" value="''" name="PARENTID"/>
					<qry:attribute type="Nomad.NSystem.Int" value="$r/@ID" name="id"/>
					<qry:attribute type="Nomad.NSystem.Int" value="$r/@ID" name="value"/>
					<qry:attribute type="Nomad.NSystem.String" value="$r/@CODE" name="code"/>
					<qry:attribute type="Nomad.NSystem.String" value="$r/@TEXT" name="text"/>
					<qry:insert-select doc-path="$r" name="SECURITY_CURSO"/>
				</qry:out>
			</qry:select>
			<qry:select doc="PARAM" name="SECURITY_CURSO">
				<qry:xquery>
					for $r in sql('
				SELECT NMD_SECURITY.policy 
				FROM NMD_SECURITY 
				WHERE NMD_SECURITY.class=\'NucleusRH.Base.Organizacion.Cursos.CURSO\' 
				AND NMD_SECURITY.id={#PARAM:@id}
			')/ROWS/ROW
				</qry:xquery>
				<qry:out>
					<qry:attribute value="$r/@policy" name="policy"/>
				</qry:out>
			</qry:select>
		</qry:define>
		<qry:define name="HELP">
			<qry:main doc="SOURCE">
				<qry:element name="ROWS">
					<qry:insert-select name="RS1"/>
				</qry:element>
			</qry:main>
			<qry:select doc="SOURCE" name="RS1">
				<qry:xquery>
					for $r in sql('
				SELECT CYD01_CURSOS.oi_curso AS ID, 
				ORG06_CURSOS.c_curso AS CODE, 
				ORG06_CURSOS.d_curso AS TEXT 
				FROM ORG06_CURSOS, CYD01_CURSOS
				JOIN ORG06_CURSOS.oi_curso INNER CYD01_CURSOS.oi_curso
			')/ROWS/ROW
				</qry:xquery>
				<qry:out>
					<qry:element name="ROW">
						<qry:attribute type="Nomad.NSystem.Int" value="$r/@ID" name="id"/>
						<qry:attribute type="Nomad.NSystem.Int" value="$r/@ID" name="value"/>
						<qry:attribute type="Nomad.NSystem.String" value="$r/@CODE" name="code"/>
						<qry:attribute type="Nomad.NSystem.String" value="$r/@TEXT" name="text"/>
						<qry:insert-select doc-path="$r" name="SECURITY_CURSO"/>
					</qry:element>
				</qry:out>
			</qry:select>
			<qry:select doc="PARAM" name="SECURITY_CURSO">
				<qry:xquery>
					for $r in sql('
				SELECT NMD_SECURITY.policy 
				FROM NMD_SECURITY 
				WHERE NMD_SECURITY.class=\'NucleusRH.Base.Organizacion.Cursos.CURSO\' 
				AND NMD_SECURITY.id={#PARAM:@id}
			')/ROWS/ROW
				</qry:xquery>
				<qry:out>
					<qry:attribute value="$r/@policy" name="policy"/>
				</qry:out>
			</qry:select>
		</qry:define>
	</flow:declare>
</flow:flow>
