<flow:flow xmlns:flow="nomad_engine.flow" extends="NucleusRH.Base.Personal.LegajoEmpresa.LICENCIA_PER.MAIN.STD.autoflow" default_action="LIST" name="NucleusRH.Base.Personal.LegajoEmpresa.LICENCIA_PER.MAIN.STD.flow">
	<flow:form name="NucleusRH.Base.Personal.LegajoEmpresa.LICENCIA_PER.MAIN.STD_REG.form:EDITCUS" extends="NucleusRH.Base.Personal.LegajoEmpresa.LICENCIA_PER.MAIN.STD_REG.form:EDIT" mode="EDIT" parent-doc="PARENT" doc="SOURCE" form-class="NucleusRH.Base.Personal.LegajoEmpresa.LICENCIA_PER.MAIN.STD_REG.form">
		<flow:action name="INT-SAVE">
			<flow:exec-method class="NucleusRH.Base.Personal.LegajoEmpresa.LICENCIA_PER" method="AltaLicencia">
				<flow:param attr-path="#DDO:@oi_personal_emp" type="Nomad.NSystem.String" mode="in" name="PARENT"/>
				<flow:param doc="DDO" type="Nomad.NSystem.Object" mode="in" name="DDO"/>
			</flow:exec-method>
		</flow:action>
	</flow:form>
	<flow:form name="NucleusRH.Base.Personal.LegajoEmpresa.LICENCIA_PER.MAIN.STD_REG.form:NEWCUS" extends="NucleusRH.Base.Personal.LegajoEmpresa.LICENCIA_PER.MAIN.STD_REG.form:NEW" mode="NEW" parent-doc="PARENT" doc="SOURCE" form-class="NucleusRH.Base.Personal.LegajoEmpresa.LICENCIA_PER.MAIN.STD_REG.form">
		<flow:action name="INT-SAVE">
			<flow:exec-method class="NucleusRH.Base.Personal.LegajoEmpresa.LICENCIA_PER" method="AltaLicencia">
				<flow:param attr-path="#DDO:@oi_personal_emp" type="Nomad.NSystem.String" mode="in" name="PARENT"/>
				<flow:param doc="DDO" type="Nomad.NSystem.Object" mode="in" name="DDO"/>
			</flow:exec-method>
		</flow:action>
	</flow:form>
</flow:flow>
