<flow:flow name="NucleusRH.Base.Personal.LegajoEmpresa.PERSONAL_EMP.GUIA_COMPLEJO.flow" xmlns:doc="nomad_engine.form" xmlns:qry="nomad_engine.form" xmlns:flow="nomad_engine.form">
	<flow:main doc="SOURCE">
		<flow:action name="HELP">
			<doc:load-qry output-doc="RS" input-doc-path="#SOURCE:" qry="HELP"/>
			<flow:open-form doc-path="#SOURCE:" form-class="NucleusRH.Base.Personal.LegajoEmpresa.PERSONAL_EMP.GUIA_COMPLEJO.form" parent-doc-path="#SOURCE:" mode="SHOW"/>
		</flow:action>
	</flow:main>
	<flow:declare>
		<doc:define name="RS"/>
		<doc:define name="OUT"/>
		<qry:define declare="&lt;helper-mess oi_empresa=&quot;9&quot;&gt;&lt;rows /&gt;&lt;/helper-mess&gt;" name="HELP">
			<qry:main doc="SOURCE">
				<qry:append-doc name="FILTRO" doc-path="#SOURCE:"/>
				<qry:element name="rows">
					<qry:insert-select name="RS1" doc-path="#SOURCE:helper-mess"/>
				</qry:element>
			</qry:main>
			<qry:select doc="SOURCE" name="RS1">
				<qry:xquery>
					for $r in sql('
				SELECT PER02_PERSONAL_EMP.oi_personal_emp, PER02_PERSONAL_EMP.e_numero_legajo,
				PER01_PERSONAL.d_ape_y_nom
				FROM PER02_PERSONAL_EMP, PER01_PERSONAL
				JOIN PER02_PERSONAL_EMP.oi_personal INNER PER01_PERSONAL.oi_personal
				WHERE PER02_PERSONAL_EMP.oi_empresa = {#SOURCE:@oi_empresa} 									
				{%? (string(#SOURCE:rows/row/@oi_personal_emp)!='') {%  AND PER02_PERSONAL_EMP.oi_personal_emp not in ({%=string(#FILTRO:helper-mess/rows/row/@oi_personal_emp) %}) %} {%  %} %}
				ORDER BY e_numero_legajo ASC
			')/ROWS/ROW
				</qry:xquery>
				<qry:out>
					<qry:element name="row">
						<qry:attribute type="Nomad.NSystem.Int" value="$r/@oi_personal_emp" name="id"/>
						<qry:attribute type="Nomad.NSystem.Int" value="$r/@oi_personal_emp" name="value"/>
						<qry:attribute type="Nomad.NSystem.String" value="$r/@e_numero_legajo" name="code"/>
						<qry:attribute type="Nomad.NSystem.String" value="$r/@d_ape_y_nom" name="text"/>
						<qry:attribute type="Nomad.NSystem.Boolean" value="0" name="check"/>
						<qry:insert-select doc-path="." name="SECURITY"/>
					</qry:element>
				</qry:out>
			</qry:select>
			<qry:select doc="PARAM" name="SECURITY">
				<qry:xquery>
					for $r in sql('
					SELECT NMD_SECURITY.policy 
					FROM NMD_SECURITY 
					WHERE NMD_SECURITY.class=\'NucleusRH.Base.Personal.LegajoEmpresa.PERSONAL_EMP\' 
					AND NMD_SECURITY.id={#PARAM:@id}
				')/ROWS/ROW
				</qry:xquery>
				<qry:out>
					<qry:attribute value="$r/@policy" name="policy"/>
				</qry:out>
			</qry:select>
		</qry:define>
		<qry:define declare="&lt;rows nmd-col=&quot;1&quot;&gt;&#13;&#10;  &lt;ROW check=&quot;1&quot; text=&quot;Sarmiento, Domingo Faustino&quot; code=&quot;1&quot; value=&quot;11423&quot; id=&quot;11423&quot; /&gt;&#13;&#10;  &lt;ROW check=&quot;1&quot; text=&quot;RIZZO, JUAN PABLO&quot; code=&quot;2&quot; value=&quot;232&quot; id=&quot;232&quot; /&gt;&#13;&#10;  &lt;ROW check=&quot;1&quot; text=&quot;CRAPACHER, ATILIO PEDRO&quot; code=&quot;3&quot; value=&quot;233&quot; id=&quot;233&quot; /&gt;&#13;&#10;  &lt;ROW check=&quot;0&quot; text=&quot;BLAJOS, MARIO CONSTANTINO&quot; code=&quot;4&quot; value=&quot;234&quot; id=&quot;234&quot; /&gt;&#13;&#10;  &lt;ROW check=&quot;0&quot; text=&quot;AVILA, JUSTO LORENZO&quot; code=&quot;5&quot; value=&quot;235&quot; id=&quot;235&quot; /&gt;&#13;&#10;  &lt;ROW check=&quot;0&quot; text=&quot;ORTIZ, ANALIA CINTHIA&quot; code=&quot;6&quot; value=&quot;237&quot; id=&quot;237&quot; /&gt;&#13;&#10;  &lt;ROW check=&quot;0&quot; text=&quot;MAESTRO, LUIS RAUL&quot; code=&quot;7&quot; value=&quot;238&quot; id=&quot;238&quot; /&gt;&#13;&#10;  &lt;ROW check=&quot;0&quot; text=&quot;CEREDA, CARLOS MARTIN&quot; code=&quot;8&quot; value=&quot;239&quot; id=&quot;239&quot; /&gt;&#13;&#10;  &lt;ROW check=&quot;0&quot; text=&quot;LUCANGELI, JUAN IGNACIO&quot; code=&quot;9&quot; value=&quot;240&quot; id=&quot;240&quot; /&gt;&#13;&#10;  &lt;ROW check=&quot;0&quot; text=&quot;MAKAUSKAS, CLAUDIA GABRIELA&quot; code=&quot;25&quot; value=&quot;11457&quot; id=&quot;11457&quot; /&gt;&#13;&#10;  &lt;ROW check=&quot;0&quot; text=&quot;Gabrich, Ivan&quot; code=&quot;102&quot; value=&quot;11433&quot; id=&quot;11433&quot; /&gt;&#13;&#10;  &lt;ROW check=&quot;0&quot; text=&quot;Olmos, Federico&quot; code=&quot;106&quot; value=&quot;11449&quot; id=&quot;11449&quot; /&gt;&#13;&#10;  &lt;ROW check=&quot;0&quot; text=&quot;Ruiz, Miguel&quot; code=&quot;123&quot; value=&quot;11450&quot; id=&quot;11450&quot; /&gt;&#13;&#10;  &lt;ROW check=&quot;0&quot; text=&quot;Allegrini, Ricardo Daniel&quot; code=&quot;1111&quot; value=&quot;11539&quot; id=&quot;11539&quot; /&gt;&#13;&#10;  &lt;ROW check=&quot;0&quot; text=&quot;Dolcemascolo, Cesar&quot; code=&quot;29724&quot; value=&quot;11428&quot; id=&quot;11428&quot; /&gt;&#13;&#10;  &lt;ROW check=&quot;0&quot; text=&quot;Colusso, Daniel&quot; code=&quot;45344&quot; value=&quot;11427&quot; id=&quot;11427&quot; /&gt;&#13;&#10;  &lt;ROW check=&quot;0&quot; text=&quot;S&#225;nchez, Damian&quot; code=&quot;78963&quot; value=&quot;229&quot; id=&quot;229&quot; /&gt;&#13;&#10;  &lt;ROW check=&quot;0&quot; text=&quot;EZCARAY, IGNACIO FRANCISCO&quot; code=&quot;111222&quot; value=&quot;11458&quot; id=&quot;11458&quot; /&gt;&#13;&#10;  &lt;ROW check=&quot;0&quot; text=&quot;Camarasa, Daniel&quot; code=&quot;15001228&quot; value=&quot;221&quot; id=&quot;221&quot; /&gt;&#13;&#10;  &lt;ROW check=&quot;0&quot; text=&quot;Sanchez, Pablo Andres&quot; code=&quot;21369258&quot; value=&quot;11432&quot; id=&quot;11432&quot; /&gt;&#13;&#10;  &lt;ROW check=&quot;0&quot; text=&quot;Delgado, Marcelo Alejandro&quot; code=&quot;23147258&quot; value=&quot;11434&quot; id=&quot;11434&quot; /&gt;&#13;&#10;  &lt;ROW check=&quot;0&quot; text=&quot;Romero, Ana Cecilia&quot; code=&quot;23147259&quot; value=&quot;11516&quot; id=&quot;11516&quot; /&gt;&#13;&#10;  &lt;ROW check=&quot;0&quot; text=&quot;Rossi, Juan Pablo&quot; code=&quot;23147260&quot; value=&quot;11517&quot; id=&quot;11517&quot; /&gt;&#13;&#10;  &lt;ROW check=&quot;0&quot; text=&quot;Urretabizcaya, Brenda Magali&quot; code=&quot;23147262&quot; value=&quot;11520&quot; id=&quot;11520&quot; /&gt;&#13;&#10;  &lt;ROW check=&quot;0&quot; text=&quot;Leoni, leandro&quot; code=&quot;23147263&quot; value=&quot;11518&quot; id=&quot;11518&quot; /&gt;&#13;&#10;  &lt;ROW check=&quot;0&quot; text=&quot;Moreno, Carla Ines&quot; code=&quot;23147264&quot; value=&quot;11534&quot; id=&quot;11534&quot; /&gt;&#13;&#10;  &lt;ROW check=&quot;0&quot; text=&quot;Maidana, Clarisa&quot; code=&quot;23147265&quot; value=&quot;11535&quot; id=&quot;11535&quot; /&gt;&#13;&#10;  &lt;ROW check=&quot;0&quot; text=&quot;PALACIOS , FABIO&quot; code=&quot;23147266&quot; value=&quot;11538&quot; id=&quot;11538&quot; /&gt;&#13;&#10;  &lt;ROW check=&quot;0&quot; text=&quot;Canseco, Mariano Andres&quot; code=&quot;23147267&quot; value=&quot;11551&quot; id=&quot;11551&quot; /&gt;&#13;&#10;&lt;/rows&gt;&#13;&#10;&#13;&#10;" name="PRUEBA">
			<qry:main doc="SOURCE">
				<qry:element name="helper-mess">
					<qry:element name="rows">
						<qry:insert-select name="RS1" doc-path="#SOURCE:"/>
					</qry:element>
				</qry:element>
			</qry:main>
			<qry:select doc="SOURCE" name="RS1">
				<qry:xquery>
					for $r in #SOURCE:ROWS/ROW[@check=1]
				</qry:xquery>
				<qry:out>
					<qry:element name="row">
						<qry:attribute value="$r/@id" name="oi_personal_emp"/>
					</qry:element>
				</qry:out>
			</qry:select>
		</qry:define>
		<doc:define name="EMPRESA"/>
		<doc:define name="AUX"/>
	</flow:declare>
	<flow:form name="NucleusRH.Base.Personal.LegajoEmpresa.PERSONAL_EMP.GUIA_COMPLEJO.form:SHOW" form-class="NucleusRH.Base.Personal.LegajoEmpresa.PERSONAL_EMP.GUIA_COMPLEJO.form" parent-doc="INVAL" doc="SOURCE" mode="SHOW">
		<flow:action name="on-show"/>
		<flow:action name="ACCEPT">
			<flow:log text-path="#SOURCE:" text="ppsource"/>
			<flow:log text-path="#RS:" text="pprs"/>
			<doc:load-qry output-doc="OUT" input-doc-path="#RS:" qry="PRUEBA"/>
			<flow:log text-path="#OUT:" text="ppout"/>
			<flow:exec-method class="NucleusRH.Base.Personal.LegajoEmpresa.PERSONAL_EMP" method="GuiaMultiple">
				<flow:param doc="SOURCE" type="Nomad.NSystem.Object" mode="in" name="SOURCE"/>
				<flow:param doc="OUT" type="Nomad.NSystem.Object" mode="inout" name="OUT"/>
			</flow:exec-method>
			<flow:log text-path="#OUT:" text="ppout2"/>
			<flow:exit-flow return-path="#OUT:"/>
		</flow:action>
		<flow:action name="CANCEL">
			<flow:exit-flow return-path="#INVAL:"/>
		</flow:action>
		<flow:action name="QRY">
			<doc:load-qry output-doc="RS" input-doc-path="#SOURCE:" qry="HELP"/>
		</flow:action>
	</flow:form>
</flow:flow>
