<flow:flow xmlns:flow="nomad_engine.flow" extends="NucleusRH.Base.Configuracion.Params.DETAIL.MAIN.STD.autoflow" default_action="LIST" name="NucleusRH.Base.Configuracion.Params.DETAIL.MAIN.STD.flow">
	<flow:info label="NucleusRH.Base.Configuracion.Params.DETAIL.MAIN.STD.autoflow"/>
	<flow:declare/>
	<flow:main doc="SOURCE"/>
	<flow:form extends="NucleusRH.Base.Configuracion.Params.DETAIL.MAIN.STD_REG.autoform:EDIT" mode="EDIT" parent-doc="PARENT" doc="SOURCE" form-class="NucleusRH.Base.Configuracion.Params.DETAIL.MAIN.STD_REG.autoform" name="NucleusRH.Base.Configuracion.Params.DETAIL.MAIN.STD_REG.form:EDIT">
		<flow:action name="on-open">
			<flow:call-action action="REFRESH"/>
			<flow:call-action action="EDIT_BOOL" eq="bool" if="#DDO:@c_type"/>
			<flow:call-action eq="int" action="EDIT_INT" if="#DDO:@c_type"/>
			<flow:call-action eq="double" action="EDIT_DOUBLE" if="#DDO:@c_type"/>
			<flow:call-action eq="date" action="EDIT_DATE" if="#DDO:@c_type"/>
			<flow:call-action eq="string" action="EDIT_STRING" if="#DDO:@c_type"/>
			<flow:call-action eq="enum" action="EDIT_ENUM" if="#DDO:@c_type"/>
			<flow:call-action eq="scombo" action="EDIT_SCOMBO" if="#DDO:@c_type"/>
			<flow:call-action eq="flow" action="EDIT_FLOW" if="#DDO:@c_type"/>
		</flow:action>
		<flow:action name="EDIT_BOOL">
			<flow:close-form/>
			<flow:open-form mode="EDIT_BOOL" parent-doc-path="#PARENT:" doc-path="#SOURCE:" form-class="NucleusRH.Base.Configuracion.Params.DETAIL.MAIN.STD_REG.form"/>
		</flow:action>
		<flow:action name="EDIT_INT">
			<flow:close-form/>
			<flow:open-form mode="EDIT_INT" parent-doc-path="#PARENT:" doc-path="#SOURCE:" form-class="NucleusRH.Base.Configuracion.Params.DETAIL.MAIN.STD_REG.form"/>
		</flow:action>
		<flow:action name="EDIT_DOUBLE">
			<flow:close-form/>
			<flow:open-form mode="EDIT_DOUBLE" parent-doc-path="#PARENT:" doc-path="#SOURCE:" form-class="NucleusRH.Base.Configuracion.Params.DETAIL.MAIN.STD_REG.form"/>
		</flow:action>
		<flow:action name="EDIT_DATE">
			<flow:close-form/>
			<flow:open-form mode="EDIT_DATE" parent-doc-path="#PARENT:" doc-path="#SOURCE:" form-class="NucleusRH.Base.Configuracion.Params.DETAIL.MAIN.STD_REG.form"/>
		</flow:action>
		<flow:action name="EDIT_STRING">
			<flow:close-form/>
			<flow:open-form mode="EDIT_STRING" parent-doc-path="#PARENT:" doc-path="#SOURCE:" form-class="NucleusRH.Base.Configuracion.Params.DETAIL.MAIN.STD_REG.form"/>
		</flow:action>
		<flow:action name="EDIT_ENUM">
			<flow:close-form/>
			<flow:open-form mode="EDIT_ENUM" parent-doc-path="#PARENT:" doc-path="#SOURCE:" form-class="NucleusRH.Base.Configuracion.Params.DETAIL.MAIN.STD_REG.form"/>
		</flow:action>
		<flow:action name="EDIT_SCOMBO">
			<flow:close-form/>
			<flow:open-form mode="EDIT_SCOMBO" parent-doc-path="#PARENT:" doc-path="#SOURCE:" form-class="NucleusRH.Base.Configuracion.Params.DETAIL.MAIN.STD_REG.form"/>
		</flow:action>
		<flow:action name="EDIT_FLOW">
			<flow:close-form/>
			<flow:open-form mode="EDIT_FLOW" parent-doc-path="#PARENT:" doc-path="#SOURCE:" form-class="NucleusRH.Base.Configuracion.Params.DETAIL.MAIN.STD_REG.form"/>
		</flow:action>
	</flow:form>
	<flow:form mode="EDIT_BOOL" name="NucleusRH.Base.Configuracion.Params.DETAIL.MAIN.STD_REG.form:EDIT_BOOL" extends="NucleusRH.Base.Configuracion.Params.DETAIL.MAIN.STD_REG.autoform:EDIT" parent-doc="PARENT" doc="SOURCE" form-class="NucleusRH.Base.Configuracion.Params.DETAIL.MAIN.STD_REG.form"/>
	<flow:form mode="EDIT_INT" name="NucleusRH.Base.Configuracion.Params.DETAIL.MAIN.STD_REG.form:EDIT_INT" extends="NucleusRH.Base.Configuracion.Params.DETAIL.MAIN.STD_REG.autoform:EDIT" parent-doc="PARENT" doc="SOURCE" form-class="NucleusRH.Base.Configuracion.Params.DETAIL.MAIN.STD_REG.form"/>
	<flow:form mode="EDIT_DOUBLE" name="NucleusRH.Base.Configuracion.Params.DETAIL.MAIN.STD_REG.form:EDIT_DOUBLE" extends="NucleusRH.Base.Configuracion.Params.DETAIL.MAIN.STD_REG.autoform:EDIT" parent-doc="PARENT" doc="SOURCE" form-class="NucleusRH.Base.Configuracion.Params.DETAIL.MAIN.STD_REG.form"/>
	<flow:form mode="EDIT_DATE" name="NucleusRH.Base.Configuracion.Params.DETAIL.MAIN.STD_REG.form:EDIT_DATE" extends="NucleusRH.Base.Configuracion.Params.DETAIL.MAIN.STD_REG.autoform:EDIT" parent-doc="PARENT" doc="SOURCE" form-class="NucleusRH.Base.Configuracion.Params.DETAIL.MAIN.STD_REG.form"/>
	<flow:form mode="EDIT_STRING" name="NucleusRH.Base.Configuracion.Params.DETAIL.MAIN.STD_REG.form:EDIT_STRING" extends="NucleusRH.Base.Configuracion.Params.DETAIL.MAIN.STD_REG.autoform:EDIT" parent-doc="PARENT" doc="SOURCE" form-class="NucleusRH.Base.Configuracion.Params.DETAIL.MAIN.STD_REG.form"/>
	<flow:form mode="EDIT_ENUM" name="NucleusRH.Base.Configuracion.Params.DETAIL.MAIN.STD_REG.form:EDIT_ENUM" extends="NucleusRH.Base.Configuracion.Params.DETAIL.MAIN.STD_REG.autoform:EDIT" parent-doc="PARENT" doc="SOURCE" form-class="NucleusRH.Base.Configuracion.Params.DETAIL.MAIN.STD_REG.form"/>
	<flow:form mode="EDIT_SCOMBO" name="NucleusRH.Base.Configuracion.Params.DETAIL.MAIN.STD_REG.form:EDIT_SCOMBO" extends="NucleusRH.Base.Configuracion.Params.DETAIL.MAIN.STD_REG.autoform:EDIT" parent-doc="PARENT" doc="SOURCE" form-class="NucleusRH.Base.Configuracion.Params.DETAIL.MAIN.STD_REG.form"/>
	<flow:form mode="EDIT_FLOW" name="NucleusRH.Base.Configuracion.Params.DETAIL.MAIN.STD_REG.form:EDIT_FLOW" extends="NucleusRH.Base.Configuracion.Params.DETAIL.MAIN.STD_REG.autoform:EDIT" parent-doc="PARENT" doc="SOURCE" form-class="NucleusRH.Base.Configuracion.Params.DETAIL.MAIN.STD_REG.form"/>
</flow:flow>
