<flow:flow name="NucleusRH.Base.Organizacion.Cursos.CURSO.guia.flow" extends="NucleusRH.Base.Organizacion.Cursos.CURSO.guia.autoflow" xmlns:doc="nomad_engine.form" xmlns:qry="nomad_engine.form" xmlns:flow="nomad_engine.form">
	<flow:info label="Flow guia para NucleusRH.Base.Organizacion.Cursos.CURSO"/>
	<flow:main doc="SOURCE">
		<flow:action name="OPEN-GUIA">
			<flow:open-form parent-doc-path="#SOURCE:" doc-path="#SOURCE:" mode="SHOW" form-class="NucleusRH.Base.Organizacion.Cursos.CURSO.guia.form"/>
		</flow:action>
	</flow:main>
	<flow:declare/>
	<flow:form extends="NucleusRH.Base.Organizacion.Cursos.CURSO.guia.autoform:SHOW" parent-doc="INVAL" doc="SOURCE" mode="SHOW" name="NucleusRH.Base.Organizacion.Cursos.CURSO.guia.form:SHOW" form-class="NucleusRH.Base.Organizacion.Cursos.CURSO.guia.form"/>
</flow:flow>
