<flow:flow name="NucleusRH.Base.Tiempos_Trabajados.Liquidacion.INTERFACE.guia.flow" extends="Nomad.Base.Report.flow" xmlns:doc="nomad_engine.form" xmlns:qry="nomad_engine.form" xmlns:flow="nomad_engine.form">
	<flow:info label="Flow guia para NucleusRH.Base.Tiempos_Trabajados.Liquidacion.INTERFACE.guia.flow"/>
	<flow:main doc="SOURCE">
		<flow:action name="HELP">
			<flow:log text-path="#SOURCE:" text="ppsource"/>
			<flow:html-gen template-file="NucleusRH.Base.Tiempos_Trabajados.InterfaceHoras.rpt" ext="html" input-doc-path="#SOURCE:" out-file-path="#SOURCE:@report"/>
			<flow:open-form mode="REPORT" form-class="Nomad.report.form" doc-path="#SOURCE:"/>
		</flow:action>
	</flow:main>
	<flow:declare/>
</flow:flow>
