<flow:flow name="NucleusRH.Base.Tiempos_Trabajados.Liquidacion.LIQUIDACION.EMPRESA.guia.flow" extends="Nomad.simple.guia.flow" xmlns:doc="nomad_engine.form" xmlns:qry="nomad_engine.form" xmlns:flow="nomad_engine.form">
	<flow:main doc="SOURCE">
		<flow:action name="OPEN-GUIA">
			<flow:open-form form-class="NucleusRH.Base.Tiempos_Trabajados.Liquidacion.LIQUIDACION.EMPRESA.guia.form" parent-doc-path="#SOURCE:" doc-path="#SOURCE:" mode="SHOW"/>
		</flow:action>
	</flow:main>
	<flow:declare>
		<qry:define declare="&lt;helper-mess oi_empresa=&quot;1&quot; id=&quot;1&quot;/&gt;" name="X2C">
			<qry:main doc="SOURCE">
				<qry:element name="ROW">
					<qry:insert-select name="RS1" doc-path="#SOURCE:helper-mess"/>
				</qry:element>
			</qry:main>
			<qry:select xmlns:qry="nomad.xquery" name="RS1" doc="SOURCE">
				<qry:xquery>
					for $r in sql('
				SELECT TTA09_LIQUIDACION.oi_liquidacion,
				TTA09_LIQUIDACION.c_liquidacion,
				TTA09_LIQUIDACION.d_liquidacion
				FROM TTA09_LIQUIDACION
				WHERE TTA09_LIQUIDACION.oi_empresa = {#SOURCE:@oi_empresa}
				AND TTA09_LIQUIDACION.oi_liquidacion = {#SOURCE:@id}
			')ROWS/ROW
				</qry:xquery>
				<qry:out>
					<qry:attribute value="$r/@oi_liquidacion" name="id"/>
					<qry:attribute value="$r/@oi_liquidacion" name="value"/>
					<qry:attribute value="$r/@c_liquidacion" name="code"/>
					<qry:attribute value="$r/@d_liquidacion" name="text"/>
					<qry:insert-select doc-path="." name="SECURITY"/>
				</qry:out>
			</qry:select>
			<qry:select doc="PARAM" name="SECURITY">
				<qry:xquery>
					for $r in sql('
				SELECT NMD_SECURITY.policy 
				FROM NMD_SECURITY 
				WHERE NMD_SECURITY.class=\'NucleusRH.Base.Tiempos_Trabajados.Liquidacion.LIQUIDACION\' 
				AND NMD_SECURITY.id={#PARAM:@id}
			')/ROWS/ROW
				</qry:xquery>
				<qry:out>
					<qry:attribute value="$r/@policy" name="policy"/>
				</qry:out>
			</qry:select>
		</qry:define>
		<qry:define declare="&lt;helper-mess oi_empresa=&quot;9&quot; code=&quot;042008&quot;/&gt;" name="C2X">
			<qry:main doc="SOURCE">
				<qry:element name="ROW">
					<qry:insert-select name="RS1" doc-path="#SOURCE:helper-mess"/>
				</qry:element>
			</qry:main>
			<qry:select xmlns:qry="nomad.xquery" name="RS1" doc="SOURCE">
				<qry:xquery>
					for $r in sql('
				SELECT TTA09_LIQUIDACION.oi_liquidacion,
				TTA09_LIQUIDACION.c_liquidacion,
				TTA09_LIQUIDACION.d_liquidacion
				FROM TTA09_LIQUIDACION
				WHERE TTA09_LIQUIDACION.oi_empresa = {#SOURCE:@oi_empresa}
				AND TTA09_LIQUIDACION.c_liquidacion = {substring_before(#SOURCE:@CODE,\'-\')}
			')ROWS/ROW
				</qry:xquery>
				<qry:out>
					<qry:attribute value="$r/@oi_liquidacion" name="id"/>
					<qry:attribute value="$r/@oi_liquidacion" name="value"/>
					<qry:attribute value="$r/@c_liquidacion" name="code"/>
					<qry:attribute value="$r/@d_liquidacion" name="text"/>
					<qry:insert-select doc-path="." name="SECURITY"/>
				</qry:out>
			</qry:select>
			<qry:select doc="PARAM" name="SECURITY">
				<qry:xquery>
					for $r in sql('
				SELECT NMD_SECURITY.policy 
				FROM NMD_SECURITY 
				WHERE NMD_SECURITY.class=\'NucleusRH.Base.Tiempos_Trabajados.Liquidacion.LIQUIDACION\' 
				AND NMD_SECURITY.id={#PARAM:@id}
			')/ROWS/ROW
				</qry:xquery>
				<qry:out>
					<qry:attribute value="$r/@policy" name="policy"/>
				</qry:out>
			</qry:select>
		</qry:define>
		<qry:define declare="&lt;helper-mess oi_empresa=&quot;1&quot; /&gt;" name="HELP">
			<qry:main doc="SOURCE">
				<qry:element name="ROWS">
					<qry:insert-select name="RS1" doc-path="#SOURCE:helper-mess"/>
				</qry:element>
			</qry:main>
			<qry:select xmlns:qry="nomad.xquery" name="RS1" doc="SOURCE">
				<qry:xquery>
					for $r in sql('
				SELECT TTA09_LIQUIDACION.oi_liquidacion,
				TTA09_LIQUIDACION.c_liquidacion,
				TTA09_LIQUIDACION.d_liquidacion
				FROM TTA09_LIQUIDACION
				WHERE TTA09_LIQUIDACION.oi_empresa = {#SOURCE:@oi_empresa}				
			')ROWS/ROW
				</qry:xquery>
				<qry:out>
					<qry:element name="ROW">
						<qry:attribute value="$r/@oi_liquidacion" name="id"/>
						<qry:attribute value="$r/@oi_liquidacion" name="value"/>
						<qry:attribute value="$r/@c_liquidacion" name="code"/>
						<qry:attribute value="$r/@d_liquidacion" name="text"/>
						<qry:insert-select doc-path="." name="SECURITY"/>
					</qry:element>
				</qry:out>
			</qry:select>
			<qry:select doc="PARAM" name="SECURITY">
				<qry:xquery>
					for $r in sql('
				SELECT NMD_SECURITY.policy 
				FROM NMD_SECURITY 
				WHERE NMD_SECURITY.class=\'NucleusRH.Base.Tiempos_Trabajados.Liquidacion.LIQUIDACION\' 
				AND NMD_SECURITY.id={#PARAM:@id}
			')/ROWS/ROW
				</qry:xquery>
				<qry:out>
					<qry:attribute value="$r/@policy" name="policy"/>
				</qry:out>
			</qry:select>
		</qry:define>
	</flow:declare>
	<flow:form mode="SHOW" doc="SOURCE" name="NucleusRH.Base.Tiempos_Trabajados.Liquidacion.LIQUIDACION.EMPRESA.guia.form:SHOW" extends="Nomad.simple.guia.form:SHOW" form-class="NucleusRH.Base.Tiempos_Trabajados.Liquidacion.LIQUIDACION.EMPRESA.guia.form"/>
</flow:flow>
