<flow:flow xmlns:flow="nomad_engine.flow" xmlns:doc="nomad_engine.doc" xmlns:qry="nomad_engine.qry" default_action="HELP" name="NucleusRH.Base.Organizacion.Clases_Organizativas.ESTRUCTURA.guia" extends="Nomad.parent.guia.flow">
	<flow:info label="Flow guia para NucleusRH.Base.Organizacion.Clases_Organizativas.ESTRUCTURA"/>
	<flow:main doc="SOURCE">
		<flow:action name="HELP">
			<doc:assign-value from-path="#SOURCE:" to-doc="PARAMIN"/>
			<flow:open-form doc-path="#SOURCE:" form-class="NucleusRH.Base.Organizacion.Clases_Organizativas.ESTRUCTURA.guia.form" mode="SHOW" parent-doc-path="#SOURCE:"/>
		</flow:action>
		<flow:action name="HELP_CLASS">
			<doc:assign-value from-path="#SOURCE:" to-doc="PARAMIN"/>
			<flow:open-form form-class="NucleusRH.Base.Organizacion.Clases_Organizativas.ESTRUCTURA.guia.form" mode="SHOW" doc-path="#SOURCE:" parent-doc-path="#SOURCE:"/>
		</flow:action>
		<flow:action name="C2X_CLASS">
			<doc:load-qry qry="C2X_CLASS" input-doc-path="#SOURCE:" output-doc="RS"/>
			<flow:exit-flow return-path="#RS:"/>
		</flow:action>
		<flow:action name="X2C_CLASS">
			<doc:load-qry qry="X2C_CLASS" input-doc-path="#SOURCE:" output-doc="RS"/>
			<flow:exit-flow return-path="#RS:"/>
		</flow:action>
	</flow:main>
	<flow:declare>
		<qry:define declare="&lt;helper-mess id=&quot;1&quot;/&gt;" name="X2C">
			<qry:main doc="SOURCE">
				<qry:element name="ROW">
					<qry:insert-select name="RS1" doc-path="#SOURCE:"/>
				</qry:element>
			</qry:main>
			<qry:select name="RS1" doc="SOURCE">
				<qry:xquery>
					for $r in sql('
						SELECT ORG01_UNI_ORG.c_unidad_org AS CODE, 
						ORG01_UNI_ORG.d_unidad_org AS TEXT, 
						ORG02_ESTRUCTURAS.oi_estr_padre AS PID, 
						ORG02_ESTRUCTURAS.oi_estructura AS ID
						FROM ORG02_ESTRUCTURAS, ORG01_UNI_ORG  
						JOIN ORG02_ESTRUCTURAS.oi_unidad_org INNER ORG01_UNI_ORG.oi_unidad_org
						WHERE ORG02_ESTRUCTURAS.oi_estructura={#SOURCE:helper-mess/@ID}				
			')/ROWS/ROW
				</qry:xquery>
				<qry:out>
					<qry:attribute name="id" value="$r/@ID" type="Nomad.NSystem.Int"/>
					<qry:attribute name="FID" value="$r/@ID" type="Nomad.NSystem.Int"/>
					<qry:attribute name="value" value="$r/@ID" type="Nomad.NSystem.Int"/>
					<qry:attribute name="code" value="$r/@CODE" type="Nomad.NSystem.String"/>
					<qry:attribute name="text" value="$r/@TEXT" type="Nomad.NSystem.String"/>
					<qry:attribute name="PID" value="$r/@PID" type="Nomad.NSystem.Int"/>
					<qry:insert-select name="RS2" doc-path="."/>
					<qry:insert-select name="RS3" doc-path="."/>
				</qry:out>
			</qry:select>
			<qry:select name="RS2" doc="SOURCE">
				<qry:xquery>
					for $r in sql('
						SELECT ORG02_CLASES_ORG.oi_clase_org AS ID, 
						ORG02_CLASES_ORG.c_clase_org AS CODE, 
						ORG02_CLASES_ORG.d_clase_org AS TEXT 
						FROM ORG02_CLASES_ORG 
						WHERE ORG02_CLASES_ORG.c_estado = \'V\'
						AND	ORG02_CLASES_ORG.oi_estructura_org={#SOURCE:@FID}
					')/ROWS/ROW
				</qry:xquery>
				<qry:out>
					<qry:attribute name="code" value="$r/@CODE+'-'+#SOURCE:@CODE" type="Nomad.NSystem.String"/>
					<qry:attribute name="text" value="$r/@TEXT+'-'+#SOURCE:@TEXT" type="Nomad.NSystem.String"/>
					<qry:attribute name="oi_clase_org" value="$r/@ID" type="Nomad.NSystem.String"/>
				</qry:out>
			</qry:select>
			<qry:select name="RS3" doc="SOURCE">
				<qry:xquery>
					for $r in sql('
						SELECT ORG01_UNI_ORG.c_unidad_org AS CODE, 
						ORG01_UNI_ORG.d_unidad_org AS TEXT, 
						ORG02_ESTRUCTURAS.oi_estr_padre AS PID, 
						ORG02_ESTRUCTURAS.oi_estructura AS ID
						FROM ORG02_ESTRUCTURAS, ORG01_UNI_ORG  
						JOIN ORG02_ESTRUCTURAS.oi_unidad_org INNER ORG01_UNI_ORG.oi_unidad_org
						WHERE ORG02_ESTRUCTURAS.oi_estructura={#SOURCE:@PID}						
					')/ROWS/ROW
				</qry:xquery>
				<qry:out>
					<qry:attribute name="code" value="$r/@CODE+'-'+#SOURCE:@CODE" type="Nomad.NSystem.String"/>
					<qry:attribute name="text" value="$r/@TEXT+'-'+#SOURCE:@TEXT" type="Nomad.NSystem.String"/>
					<qry:attribute name="PID" value="$r/@PID" type="Nomad.NSystem.Int"/>
					<qry:attribute name="FID" value="$r/@ID" type="Nomad.NSystem.Int"/>
					<qry:insert-select name="RS2" doc-path="."/>
					<qry:insert-select name="RS3" doc-path="."/>
				</qry:out>
			</qry:select>
		</qry:define>
		<qry:define declare="&lt;helper-mess code=&quot;01 POS&quot;/&gt;" name="C2X">
			<qry:main doc="SOURCE">
				<qry:append-doc name="INDOC" doc-path="#SOURCE:helper-mess"/>
				<qry:element name="ROW">
					<qry:insert-select name="RS1" doc-path="#SOURCE:"/>
				</qry:element>
			</qry:main>
			<qry:select name="RS1" doc="SOURCE">
				<qry:xquery>
					for $r in sql('
						SELECT ORG02_CLASES_ORG.oi_clase_org AS ID, 
						ORG02_CLASES_ORG.c_clase_org AS CODE, 
						ORG02_CLASES_ORG.d_clase_org AS TEXT, 
						ORG02_CLASES_ORG.oi_estructura_org AS FID
						FROM ORG02_CLASES_ORG 
						WHERE ORG02_CLASES_ORG.c_estado = \'V\'
						AND	ORG02_CLASES_ORG.c_clase_org={substring_before(#INDOC:@CODE,\'-\')} 
				')/ROWS/ROW
				</qry:xquery>
				<qry:out>
					<qry:attribute name="SUB_SEARCH" value="substring_after(#INDOC:@CODE,'-')" type="Nomad.NSystem.String"/>
					<qry:attribute name="id" value="$r/@ID" type="Nomad.NSystem.String"/>
					<qry:attribute name="code" value="$r/@CODE" type="Nomad.NSystem.String"/>
					<qry:attribute name="text" value="$r/@TEXT" type="Nomad.NSystem.String"/>
					<qry:insert-select name="RS2" doc-path="."/>
				</qry:out>
			</qry:select>
			<qry:select name="RS2" doc="SOURCE">
				<qry:xquery>
					for $r in sql('      
						SELECT ORG01_UNI_ORG.c_unidad_org AS CODE, 
						ORG01_UNI_ORG.d_unidad_org AS TEXT, 
						ORG02_ESTRUCTURAS.oi_estructura AS ID
						FROM ORG02_ESTRUCTURAS, ORG01_UNI_ORG  
						JOIN ORG02_ESTRUCTURAS.oi_unidad_org INNER ORG01_UNI_ORG.oi_unidad_org
						WHERE ORG01_UNI_ORG.c_unidad_org={substring_before(#SOURCE:@SUB_SEARCH,\'-\')}					
						AND ORG02_ESTRUCTURAS.oi_estructura = {#SOURCE:@fid}
					')/ROWS/ROW
				</qry:xquery>
				<qry:out>
					<qry:attribute name="SUB_SEARCH" value="substring_after(#SOURCE:@SUB_SEARCH,'-')" type="Nomad.NSystem.String"/>
					<qry:attribute name="id" value="$r/@ID" type="Nomad.NSystem.String"/>
					<qry:attribute name="code" value="#SOURCE:@CODE+'-'+$r/@CODE" type="Nomad.NSystem.String"/>
					<qry:attribute name="text" value="#SOURCE:@TEXT+'-'+$r/@TEXT" type="Nomad.NSystem.String"/>
					<qry:insert-select name="RS3" doc-path="."/>
				</qry:out>
			</qry:select>
			<qry:select name="RS3" doc="SOURCE">
				<qry:xquery>
					for $r in sql('      
					SELECT ORG01_UNI_ORG.c_unidad_org AS CODE, 
					ORG01_UNI_ORG.d_unidad_org AS TEXT, 
					ORG02_ESTRUCTURAS.oi_estructura AS ID
					FROM ORG02_ESTRUCTURAS, ORG01_UNI_ORG  
					JOIN ORG02_ESTRUCTURAS.oi_unidad_org INNER ORG01_UNI_ORG.oi_unidad_org
					WHERE ORG01_UNI_ORG.c_unidad_org={substring_before(#SOURCE:@SUB_SEARCH,\'-\')}					
					AND ORG02_ESTRUCTURAS.oi_estr_padre = {#SOURCE:@id}
				')/ROWS/ROW
				</qry:xquery>
				<qry:out>
					<qry:attribute name="SUB_SEARCH" value="substring_after(#SOURCE:@SUB_SEARCH,'-')" type="Nomad.NSystem.String"/>
					<qry:attribute name="id" value="$r/@ID" type="Nomad.NSystem.String"/>
					<qry:attribute name="code" value="#SOURCE:@CODE+'-'+$r/@CODE" type="Nomad.NSystem.String"/>
					<qry:attribute name="text" value="#SOURCE:@TEXT+'-'+$r/@TEXT" type="Nomad.NSystem.String"/>
					<qry:insert-select name="RS3" doc-path="."/>
				</qry:out>
			</qry:select>
		</qry:define>
		<doc:define name="RS"/>
		<doc:define name="PARAM">
			<helper-mess ID="0"/>
		</doc:define>
		<qry:define declare="&lt;helper-mess id=&quot;1&quot;/&gt;" name="X2C_CLASS">
			<qry:main doc="SOURCE">
				<qry:element name="ROW">
					<qry:insert-select name="RS1" doc-path="#SOURCE:"/>
				</qry:element>
			</qry:main>
			<qry:select name="RS1" doc="SOURCE">
				<qry:xquery>
					for $r in sql('
						SELECT ORG01_UNI_ORG.c_unidad_org AS CODE, 
						ORG01_UNI_ORG.d_unidad_org AS TEXT, 
						ORG02_ESTRUCTURAS.oi_estr_padre AS PID, 
						ORG02_ESTRUCTURAS.oi_estructura AS ID
						FROM ORG02_ESTRUCTURAS, ORG01_UNI_ORG  
						JOIN ORG02_ESTRUCTURAS.oi_unidad_org INNER ORG01_UNI_ORG.oi_unidad_org
						WHERE ORG02_ESTRUCTURAS.oi_estructura={#SOURCE:helper-mess/@ID}
						
					')/ROWS/ROW
				</qry:xquery>
				<qry:out>
					<qry:attribute name="id" value="$r/@ID" type="Nomad.NSystem.Int"/>
					<qry:attribute name="FID" value="$r/@ID" type="Nomad.NSystem.Int"/>
					<qry:attribute name="value" value="$r/@ID" type="Nomad.NSystem.Int"/>
					<qry:attribute name="code" value="$r/@CODE" type="Nomad.NSystem.String"/>
					<qry:attribute name="text" value="$r/@TEXT" type="Nomad.NSystem.String"/>
					<qry:attribute name="PID" value="$r/@PID" type="Nomad.NSystem.Int"/>
					<qry:insert-select name="RS3" doc-path="."/>
				</qry:out>
			</qry:select>
			<qry:select name="RS3" doc="SOURCE">
				<qry:xquery>
					for $r in sql('
				SELECT ORG01_UNI_ORG.c_unidad_org AS CODE, 
				ORG01_UNI_ORG.d_unidad_org AS TEXT, 
				ORG02_ESTRUCTURAS.oi_estr_padre AS PID, 
				ORG02_ESTRUCTURAS.oi_estructura AS ID
				FROM ORG02_ESTRUCTURAS, ORG01_UNI_ORG  
				WHERE ORG02_ESTRUCTURAS.oi_estructura={#SOURCE:@PID}
				AND ORG02_ESTRUCTURAS.oi_unidad_org = ORG01_UNI_ORG.oi_unidad_org
			')/ROWS/ROW
				</qry:xquery>
				<qry:out>
					<qry:attribute name="code" value="$r/@CODE+'-'+#SOURCE:@CODE" type="Nomad.NSystem.String"/>
					<qry:attribute name="text" value="$r/@TEXT+'-'+#SOURCE:@TEXT" type="Nomad.NSystem.String"/>
					<qry:attribute name="PID" value="$r/@PID" type="Nomad.NSystem.Int"/>
					<qry:attribute name="FID" value="$r/@ID" type="Nomad.NSystem.Int"/>
					<qry:insert-select name="RS3" doc-path="."/>
				</qry:out>
			</qry:select>
		</qry:define>
		<qry:define declare="&lt;helper-mess oi_clase_org=&quot;1&quot; code=&quot;01 POS&quot;/&gt;" name="C2X_CLASS">
			<qry:main doc="SOURCE">
				<qry:append-doc doc-path="#SOURCE:helper-mess" name="INDOC"/>
				<qry:element name="ROW">
					<qry:insert-select doc-path="#SOURCE:helper-mess" name="RS2"/>
				</qry:element>
			</qry:main>
			<qry:select doc="SOURCE" name="RS2">
				<qry:xquery>
					for $r in sql('
						SELECT ORG01_UNI_ORG.c_unidad_org AS CODE, 
						ORG01_UNI_ORG.d_unidad_org AS TEXT, 
						ORG02_ESTRUCTURAS.oi_estructura AS ID 
						FROM ORG02_ESTRUCTURAS, ORG01_UNI_ORG, ORG02_CLASES_ORG 
						JOIN ORG02_ESTRUCTURAS.oi_unidad_org INNER ORG01_UNI_ORG.oi_unidad_org,
						ORG02_ESTRUCTURAS.oi_estructura INNER ORG02_CLASES_ORG.oi_estructura_org 
						WHERE ORG02_CLASES_ORG.c_estado = \'V\'
						AND	ORG01_UNI_ORG.c_unidad_org={substring_before(#SOURCE:@code,\'-\')} 
						AND ORG02_CLASES_ORG.oi_clase_org={#SOURCE:@oi_clase_org}
					')/ROWS/ROW
				</qry:xquery>
				<qry:out>
					<qry:attribute type="Nomad.NSystem.String" value="substring_after(#SOURCE:@CODE,'-')" name="SUB_SEARCH"/>
					<qry:attribute type="Nomad.NSystem.String" value="$r/@ID" name="id"/>
					<qry:attribute type="Nomad.NSystem.String" value="$r/@CODE" name="code"/>
					<qry:attribute type="Nomad.NSystem.String" value="$r/@TEXT" name="text"/>
					<qry:insert-select doc-path="." name="RS3"/>
				</qry:out>
			</qry:select>
			<qry:select doc="SOURCE" name="RS3">
				<qry:xquery>
					for $r in sql('
						SELECT ORG01_UNI_ORG.c_unidad_org AS CODE, 
						ORG01_UNI_ORG.d_unidad_org AS TEXT, 
						ORG02_ESTRUCTURAS.oi_estructura AS ID 
						FROM ORG02_ESTRUCTURAS, ORG01_UNI_ORG 
						JOIN ORG02_ESTRUCTURAS.oi_unidad_org INNER ORG01_UNI_ORG.oi_unidad_org 
						WHERE ORG01_UNI_ORG.c_unidad_org={substring_before(#SOURCE:@SUB_SEARCH,\'-\')} 						
						AND ORG02_ESTRUCTURAS.oi_estr_padre = {#SOURCE:@id}
						')/ROWS/ROW
				</qry:xquery>
				<qry:out>
					<qry:attribute type="Nomad.NSystem.String" value="substring_after(#SOURCE:@SUB_SEARCH,'-')" name="SUB_SEARCH"/>
					<qry:attribute type="Nomad.NSystem.String" value="$r/@ID" name="id"/>
					<qry:attribute type="Nomad.NSystem.String" value="#SOURCE:@CODE+'-'+$r/@CODE" name="code"/>
					<qry:attribute type="Nomad.NSystem.String" value="#SOURCE:@TEXT+'-'+$r/@TEXT" name="text"/>
					<qry:insert-select doc-path="." name="RS3"/>
				</qry:out>
			</qry:select>
		</qry:define>
		<doc:define name="AUXRS"/>
	</flow:declare>
	<flow:form name="NucleusRH.Base.Organizacion.Clases_Organizativas.ESTRUCTURA.guia.form:SHOW" form-class="NucleusRH.Base.Organizacion.Clases_Organizativas.ESTRUCTURA.guia.form" mode="SHOW" doc="SOURCE" parent-doc="INVAL" extends="Nomad.parent.guia.form:SHOW">
		<flow:action name="on-show"/>
		<flow:action name="ACCEPT">
			<doc:load-qry input-doc-path="#SOURCE:" output-doc="RS" qry="X2C"/>
			<flow:exit-flow return-path="#RS:"/>
		</flow:action>
	</flow:form>
</flow:flow>
