<flow:flow name="NucleusRH.Base.Liquidacion.Variables.VARIABLE.EN.guia" extends="NucleusRH.Base.Liquidacion.Variables.VARIABLE.guia.autoflow" xmlns:doc="nomad_engine.form" xmlns:qry="nomad_engine.form" xmlns:flow="nomad_engine.form">
	<flow:info label="Flow guia para NucleusRH.Base.Liquidacion.Variables.VARIABLE.EN"/>
	<flow:main doc="SOURCE"/>
	<flow:declare>
		<qry:define declare="&lt;helper-mess CODE=&quot;fe_codosanssal&quot; /&gt;" name="C2X">
			<qry:main doc="SOURCE">
				<qry:append-doc doc-path="#SOURCE:helper-mess" name="INDOC"/>
				<qry:element name="ROW">
					<qry:insert-select doc-path="#SOURCE:" name="RS1"/>
				</qry:element>
			</qry:main>
			<qry:select doc="SOURCE" name="RS1">
				<qry:xquery>
					for $r in sql('
			SELECT t.oi_variable as ID, t.c_variable as CODE, t.d_variable as TEXT, SEC.policy  
			FROM LIQ09_VARIABLES as t, 
			NMD_SECURITY(class=\'NucleusRH.Base.Liquidacion.Variables.VARIABLE\') as SEC,
			LIQ09_VARIABLES
			JOIN t.oi_variable LEFT OUTER SEC.id,
			t.oi_variable INNER LIQ09_VARIABLES.oi_variable
			WHERE t.c_variable={substring_before(#INDOC:@CODE,\'-\')}
			AND LIQ09_VARIABLES.c_tipo_variable = \'1\'
			ORDER BY CODE asc')/ROWS/ROW
				</qry:xquery>
				<qry:out>
					<qry:attribute value="$r/@policy" name="policy"/>
					<qry:attribute value="''" name="SUB_SEARCH"/>
					<qry:attribute value="''" name="PARENTID"/>
					<qry:attribute value="$r/@ID" name="id"/>
					<qry:attribute value="$r/@ID" name="value"/>
					<qry:attribute value="$r/@CODE" name="code"/>
					<qry:attribute value="$r/@TEXT" name="text"/>
				</qry:out>
			</qry:select>
		</qry:define>
		<qry:define name="HELP">
			<qry:main doc="SOURCE">
				<qry:element name="ROWS">
					<qry:insert-select doc-path="#SOURCE:" name="RS1"/>
				</qry:element>
			</qry:main>
			<qry:select doc="SOURCE" name="RS1">
				<qry:xquery>
					for $r in sql('
				SELECT t.oi_variable as ID, t.c_variable as CODE, t.d_variable as TEXT, SEC.policy  
				FROM LIQ09_VARIABLES as t, 
				NMD_SECURITY(class=\'NucleusRH.Base.Liquidacion.Variables.VARIABLE\') as SEC,
				LIQ09_VARIABLES
				JOIN t.oi_variable LEFT OUTER SEC.id,
				t.oi_variable INNER LIQ09_VARIABLES.oi_variable
				WHERE LIQ09_VARIABLES.c_tipo_variable = \'1\'
				ORDER BY CODE asc')/ROWS/ROW
				</qry:xquery>
				<qry:out>
					<qry:element name="ROW">
						<qry:attribute value="$r/@ID" name="id"/>
						<qry:attribute value="$r/@ID" name="value"/>
						<qry:attribute value="$r/@CODE" name="code"/>
						<qry:attribute value="$r/@TEXT" name="text"/>
						<qry:attribute value="$r/@policy" name="policy"/>
					</qry:element>
				</qry:out>
			</qry:select>
		</qry:define>
	</flow:declare>
</flow:flow>
