<flow:flow xmlns:flow="nomad_engine.flow" name="NucleusRH.Base.Organizacion.Convenios.CATEGORIA.check.flow" extends="NucleusRH.Base.Organizacion.Empresas.CHECK.flow" default_action="OPEN-GUIA">
	<flow:info label="Flow guia para NucleusRH.Base.Organizacion.CONVENIO.check"/>
	<flow:main doc="SOURCE">
		<flow:action name="OPEN-GUIA">
			<flow:open-form form-class="NucleusRH.Base.Organizacion.Convenios.CATEGORIA.check.form" doc-path="#DATA:" mode="SHOW"/>
		</flow:action>
	</flow:main>
	<flow:form form-class="NucleusRH.Base.Organizacion.Convenios.CATEGORIA.check.form" name="NucleusRH.Base.Organizacion.Convenios.CATEGORIA.check.form:SHOW" extends="NucleusRH.Base.Organizacion.Empresas.CHECK.form:SHOW" doc="SOURCE" mode="SHOW"/>
</flow:flow>
