<flow:flow xmlns:flow="nomad_engine.flow" xmlns:doc="nomad_engine.doc" default_action="LIST" name="NucleusRH.Base.Tiempos_Trabajados.NovedadesRol.NOVEDAD_ROL.flow">
	<flow:declare>
		<doc:define name="XML_RESULT">
			<RESULT/>
		</doc:define>
	</flow:declare>
	<flow:main doc="SOURCE">
		<flow:action name="DeleteNovRol">
			<flow:exec-method out-doc="XML_RESULT" class="NucleusRH.Base.Tiempos_Trabajados.NovedadesRol.NOVEDAD_ROL" out-type="Nomad.NSystem.Proxy.NomadXML" method="DeleteNovRol">
				<flow:param attr-path="#SOURCE:@ID" name="ID" type="Nomad.NSystem.String" mode="in"/>
			</flow:exec-method>
			<flow:exit-flow return-path="#XML_RESULT:"/>
		</flow:action>
	</flow:main>
</flow:flow>
