<flow:flow xmlns:flow="nomad_engine.flow" xmlns:doc="nomad_engine.doc" extends="NucleusRH.Base.Presupuesto.Escenarios.flow" name="NucleusRH.Base.Presupuesto.Escenarios">
	<flow:info label="Flow para NucleusRH.Base.Presupuesto.Escenarios"/>
	<flow:declare/>
	<flow:main doc="SOURCE"/>
	<flow:group Name="ESCENARIO">
		<flow:form name="NucleusRH.Base.PresupuestoLiquidacion.Liquidacion.ESCENARIO.noreg.form:EDIT" extends="NucleusRH.Base.Presupuesto.Escenarios.ESCENARIO.noreg.form:EDIT" parent-doc="PARENTSOURCE" doc="SOURCE" form-class="NucleusRH.Base.Presupuesto.Escenarios.ESCENARIO.noreg.autoform" mode="EDIT">
			<flow:action name="open-flow-SHOW">
				<flow:open-form form-class="NucleusRH.Base.PresupuestoLiquidacion.Liquidacion.ESCENARIO.form" iter-index="#QRY:ROW/@id" parent-doc-path="#QRY:" doc-path="#DDO:" mode="SHOW"/>
			</flow:action>
			<flow:action name="open-flow-LIST">
				<flow:open-form form-class="NucleusRH.Base.PresupuestoLiquidacion.Liquidacion.ESCENARIO.form" iter-index="#QRY_LIST:ROW/@id" parent-doc-path="#QRY_LIST:" doc-path="#DDO:" mode="LIST"/>
			</flow:action>
		</flow:form>
		<flow:form form-class="NucleusRH.Base.PresupuestoLiquidacion.Liquidacion.ESCENARIO.form" name="NucleusRH.Base.PresupuestoLiquidacion.Liquidacion.ESCENARIO.form:SHOW" extends="NucleusRH.Base.Presupuesto.Escenarios.ESCENARIO.form:SHOW" parent-doc="PARENTSOURCE" doc="SOURCE" mode="SHOW">
			<flow:action name="INCORPORAR_LIQ">
				<doc:set-attribute from-attr-path="#DDO:@id" to-attr-path="#PRESUPUESTO:@oi_escenario"/>
				<doc:set-attribute from-attr-path="#DDO:@id" to-attr-path="#PRESUPUESTO:@id_esce"/>
				<doc:set-attribute from-attr-path="#DDO:oi_presupuesto/@value" to-attr-path="#PRESUPUESTO:@id"/>
				<doc:set-attribute from-attr-path="#FILTERDATA:@Modo" to-attr-path="#PRESUPUESTO:@Modo"/>
				<doc:set-attribute from-attr-path="#FILTERDATA:@nivel" to-attr-path="#PRESUPUESTO:@nivel"/>
				<doc:set-attribute from-value="S" to-attr-path="#PRESUPUESTO:@Modo_esce"/>
				<flow:exit-flow next-flow="NucleusRH.Base.PresupuestoLiquidacion.Liquidacion.LIQUIDACION.flow" return-path="#PRESUPUESTO:" next-action="initialize"/>
			</flow:action>
			<flow:action name="INCORPORAR_NOV">
				<doc:set-attribute from-attr-path="#DDO:@id" to-attr-path="#PRESUPUESTO:@oi_escenario"/>
				<doc:set-attribute from-attr-path="#DDO:@id" to-attr-path="#PRESUPUESTO:@id_esce"/>
				<doc:set-attribute from-attr-path="#DDO:oi_presupuesto/@value" to-attr-path="#PRESUPUESTO:@id"/>
				<doc:set-attribute from-attr-path="#FILTERDATA:@Modo" to-attr-path="#PRESUPUESTO:@Modo"/>
				<doc:set-attribute from-attr-path="#FILTERDATA:@nivel" to-attr-path="#PRESUPUESTO:@nivel"/>
				<doc:set-attribute from-value="S" to-attr-path="#PRESUPUESTO:@Modo_esce"/>
				<flow:exit-flow next-flow="NucleusRH.Base.PresupuestoLiquidacion.Liquidacion.LIQUIDACION.flow" return-path="#PRESUPUESTO:" next-action="novedades"/>
			</flow:action>
			<flow:action name="RECALCULAR">
				<flow:log text-path="#FILTERDATA:" text="DENIS_LOG"/>
				<flow:exec-method class="NucleusRH.Base.PresupuestoLiquidacion.Conceptos.CONCEPTO" method="Recalcular" out-attr-path="#BATCHDOC:@batch-id" priority="8">
					<flow:param attr-path="#FILTERDATA:@oi_escenario" name="oiEscenario" type="Nomad.NSystem.Int" mode="in"/>
				</flow:exec-method>
				<flow:open-form form-class="nomad.base.batchtolist.form" mode="BATCH" parent-doc-path="#SOURCE:" doc-path="#BATCHDOC:"/>
			</flow:action>
		</flow:form>
		<flow:form form-class="NucleusRH.Base.PresupuestoLiquidacion.Liquidacion.ESCENARIO.form" name="NucleusRH.Base.PresupuestoLiquidacion.Liquidacion.ESCENARIO.form:LIST" extends="NucleusRH.Base.Presupuesto.Escenarios.ESCENARIO.form:LIST" doc="SOURCE" mode="LIST">
			<flow:action name="INCORPORAR_LIQ">
				<doc:set-attribute from-attr-path="#FORM:ctrl[@id='LIST']/@xval" to-attr-path="#PRESUPUESTO:@oi_escenario"/>
				<doc:set-attribute from-attr-path="#FORM:ctrl[@id='LIST']/@xval" to-attr-path="#PRESUPUESTO:@id_esce"/>
				<doc:set-attribute from-attr-path="#DDO:oi_presupuesto/@value" to-attr-path="#PRESUPUESTO:@id"/>
				<doc:set-attribute from-attr-path="#FILTERDATA:@Modo" to-attr-path="#PRESUPUESTO:@Modo"/>
				<doc:set-attribute from-attr-path="#FILTERDATA:@nivel" to-attr-path="#PRESUPUESTO:@nivel"/>
				<doc:set-attribute from-value="L" to-attr-path="#PRESUPUESTO:@Modo_esce"/>
				<flow:exit-flow next-flow="NucleusRH.Base.PresupuestoLiquidacion.Liquidacion.LIQUIDACION.flow" return-path="#PRESUPUESTO:" next-action="initialize"/>
			</flow:action>
			<flow:action name="INCORPORAR_NOV">
				<doc:set-attribute from-attr-path="#FORM:ctrl[@id='LIST']/@xval" to-attr-path="#PRESUPUESTO:@oi_escenario"/>
				<doc:set-attribute from-attr-path="#FORM:ctrl[@id='LIST']/@xval" to-attr-path="#PRESUPUESTO:@id_esce"/>
				<doc:set-attribute from-attr-path="#DDO:oi_presupuesto/@value" to-attr-path="#PRESUPUESTO:@id"/>
				<doc:set-attribute from-attr-path="#FILTERDATA:@Modo" to-attr-path="#PRESUPUESTO:@Modo"/>
				<doc:set-attribute from-attr-path="#FILTERDATA:@nivel" to-attr-path="#PRESUPUESTO:@nivel"/>
				<doc:set-attribute from-value="L" to-attr-path="#PRESUPUESTO:@Modo_esce"/>
				<flow:exit-flow next-flow="NucleusRH.Base.PresupuestoLiquidacion.Liquidacion.LIQUIDACION.flow" return-path="#PRESUPUESTO:" next-action="novedades"/>
			</flow:action>
			<flow:action name="RECALCULAR">
				<flow:log text-path="#FILTERDATA:" text="DENIS_LOG"/>
				<flow:exec-method class="NucleusRH.Base.PresupuestoLiquidacion.Conceptos.CONCEPTO" method="Recalcular" out-attr-path="#BATCHDOC:@batch-id" priority="8">
					<flow:param attr-path="#FILTERDATA:@oi_escenario" name="oiEscenario" type="Nomad.NSystem.Int" mode="in"/>
				</flow:exec-method>
				<flow:open-form form-class="nomad.base.batchtolist.form" mode="BATCH" parent-doc-path="#SOURCE:" doc-path="#BATCHDOC:"/>
			</flow:action>
		</flow:form>
		<flow:form extends="nomad.base.batchtolist.form:BATCH" mode="BATCH" name="nomad.base.batchtolist.form:XXXX" form-class="nomad.base.batchtolist.form" doc="SOURCE">
			<flow:action name="EXIT">
				<flow:close-form/>
			</flow:action>
		</flow:form>
	</flow:group>
</flow:flow>
