<flow:flow name="NucleusRH.Base.Tiempos_Trabajados.DUPLICAR.guia.flow" extends="Nomad.simple.guia.flow" xmlns:doc="nomad_engine.form" xmlns:qry="nomad_engine.form" xmlns:flow="nomad_engine.form">
	<flow:info label="Flow guia para NucleusRH.Base.Tiempos_Trabajados.DUPLICAR.guia.flow"/>
	<flow:main doc="SOURCE">
		<flow:action name="HELP">
			<flow:log text-path="#SOURCE:" text="ppsource"/>
			<flow:open-form form-class="NucleusRH.Base.Tiempos_Trabajados.Horarios.DUPLICAR.guia.form" doc-path="#SOURCE:" mode="EDIT"/>
		</flow:action>
	</flow:main>
	<flow:declare>
		<doc:define name="DDOHOR" class="NucleusRH.Base.Tiempos_Trabajados.Horarios.HORARIO"/>
	</flow:declare>
	<flow:form form-class="NucleusRH.Base.Tiempos_Trabajados.Horarios.DUPLICAR.guia.form" name="NucleusRH.Base.Tiempos_Trabajados.Horarios.DUPLICAR.guia.form:EDIT" mode="EDIT" parent-doc="INVAL" doc="REPORT">
		<flow:action name="CANCEL">
			<flow:close-form/>
		</flow:action>
		<flow:action name="SAVE">
			<flow:log text-path="#SOURCE:" text="ppsource"/>
			<flow:exec-method class="NucleusRH.Base.Tiempos_Trabajados.Horarios.HORARIO" method="Duplicar">
				<flow:param attr-path="#SOURCE:@id" type="Nomad.NSystem.String" mode="in" name="id"/>
				<flow:param attr-path="#SOURCE:@c_horario" name="code" type="Nomad.NSystem.String" mode="in"/>
				<flow:param attr-path="#SOURCE:@d_horario" name="desc" type="Nomad.NSystem.String" mode="in"/>
				<flow:param attr-path="#SOURCE:@color" name="color" type="Nomad.NSystem.String" mode="in"/>
			</flow:exec-method>
			<flow:close-form next-action="After-Change-DUPLICAR"/>
		</flow:action>
	</flow:form>
</flow:flow>
