<flow:flow xmlns:flow="nomad_engine.flow" xmlns:qry="nomad_engine.qry" name="NucleusRH.Base.Tiempos_Trabajados.Horarios.HORARIO.CAMBIOTURNO.guia" extends="NucleusRH.Base.Tiempos_Trabajados.Horarios.HORARIO.guia.flow">
	<flow:info label="Flow guia para NucleusRH.Base.Tiempos_Trabajados.Horarios.HORARIO"/>
	<flow:main doc="SOURCE"/>
	<flow:declare>
		<qry:define name="X2C">
			<qry:main doc="SOURCE">
				<qry:element name="ROW">
					<qry:insert-select doc-path="#SOURCE:" name="RS1"/>
				</qry:element>
			</qry:main>
			<qry:select doc="SOURCE" name="RS1">
				<qry:xquery>
					for $r in sql('
				SELECT t.oi_horario as ID, 
				t.c_horario as CODE, 
				t.d_horario as TEXT, 
				t.d_tipohorario as tipo,
				SEC.policy  
				FROM TTA02_HORARIOS as t, 
				NMD_SECURITY(class=\'NucleusRH.Base.Tiempos_Trabajados.Horarios.HORARIO\') as SEC 
				JOIN t.oi_horario LEFT OUTER SEC.id  
				WHERE t.oi_horario={#SOURCE:helper-mess/@ID} 				
				AND t.l_cambio_turno =\'1\'
				ORDER BY CODE asc
			')/ROWS/ROW
				</qry:xquery>
				<qry:out>
					<qry:attribute value="$r/@ID" name="id"/>
					<qry:attribute value="$r/@ID" name="value"/>
					<qry:attribute value="$r/@CODE" name="code"/>
					<qry:attribute value="$r/@TEXT" name="text"/>
					<qry:attribute value="$r/@tipo" name="tipo"/>
				</qry:out>
			</qry:select>
		</qry:define>
		<qry:define name="C2X">
			<qry:main doc="SOURCE">
				<qry:append-doc doc-path="#SOURCE:helper-mess" name="INDOC"/>
				<qry:element name="ROW">
					<qry:insert-select doc-path="#SOURCE:" name="RS1"/>
				</qry:element>
			</qry:main>
			<qry:select doc="SOURCE" name="RS1">
				<qry:xquery>
					for $r in sql('
				SELECT t.oi_horario as ID, 
				t.c_horario as CODE, 
				t.d_horario as TEXT,
				t.d_tipohorario as tipo, 
				SEC.policy  
				FROM TTA02_HORARIOS as t, 
				NMD_SECURITY(class=\'NucleusRH.Base.Tiempos_Trabajados.Horarios.HORARIO\') as SEC 
				JOIN t.oi_horario LEFT OUTER SEC.id  
				WHERE t.c_horario={substring_before(#INDOC:@CODE,\'-\')} 				
				AND t.l_cambio_turno =\'1\'
				ORDER BY CODE asc
			')/ROWS/ROW
				</qry:xquery>
				<qry:out>
					<qry:attribute value="$r/@policy" name="policy"/>
					<qry:attribute value="''" name="SUB_SEARCH"/>
					<qry:attribute value="''" name="PARENTID"/>
					<qry:attribute value="$r/@ID" name="id"/>
					<qry:attribute value="$r/@ID" name="value"/>
					<qry:attribute value="$r/@CODE" name="code"/>
					<qry:attribute value="$r/@TEXT" name="text"/>
					<qry:attribute value="$r/@tipo" name="tipo"/>
				</qry:out>
			</qry:select>
		</qry:define>
		<qry:define name="HELP">
			<qry:main doc="SOURCE">
				<qry:element name="ROWS">
					<qry:insert-select doc-path="#SOURCE:" name="RS1"/>
				</qry:element>
			</qry:main>
			<qry:select doc="SOURCE" name="RS1">
				<qry:xquery>
					for $r in sql('
				SELECT t.oi_horario as ID, 
				t.c_horario as CODE, 
				t.d_horario as TEXT, 
				t.d_tipohorario as tipo,
				SEC.policy  
				FROM TTA02_HORARIOS as t, 
				NMD_SECURITY(class=\'NucleusRH.Base.Tiempos_Trabajados.Horarios.HORARIO\') as SEC 
				JOIN t.oi_horario LEFT OUTER SEC.id  				
				WHERE t.l_cambio_turno =\'1\'
				ORDER BY CODE asc
			')/ROWS/ROW
				</qry:xquery>
				<qry:out>
					<qry:element name="ROW">
						<qry:attribute value="$r/@ID" name="id"/>
						<qry:attribute value="$r/@ID" name="value"/>
						<qry:attribute value="$r/@CODE" name="code"/>
						<qry:attribute value="$r/@TEXT" name="text"/>
						<qry:attribute value="$r/@tipo" name="tipo"/>
						<qry:attribute value="$r/@policy" name="policy"/>
					</qry:element>
				</qry:out>
			</qry:select>
		</qry:define>
	</flow:declare>
</flow:flow>
