<flow:flow xmlns:flow="nomad_engine.flow" extends="NucleusRH.Base.Tiempos_Trabajados.Liquidacion_Personas.LIQUIDACIONPERS.guia.autoflow" name="NucleusRH.Base.Tiempos_Trabajados.Liquidacion_Personas.LIQUIDACIONPERS.guia">
	<flow:main doc="SOURCE">
		<flow:action name="OPEN-GUIA">
			<flow:open-form parent-doc-path="#SOURCE:" doc-path="#RS:" mode="SHOW" form-class="NucleusRH.Base.Tiempos_Trabajados.Liquidacion_Personas.LIQUIDACIONPERS.guia.form"/>
		</flow:action>
	</flow:main>
	<flow:form extends="NucleusRH.Base.Tiempos_Trabajados.Liquidacion_Personas.LIQUIDACIONPERS.guia.autoform:SHOW" parent-doc="INVAL" doc="SOURCE" mode="SHOW" name="NucleusRH.Base.Tiempos_Trabajados.Liquidacion_Personas.LIQUIDACIONPERS.guia.form:SHOW" form-class="NucleusRH.Base.Tiempos_Trabajados.Liquidacion_Personas.LIQUIDACIONPERS.guia.form"/>
</flow:flow>
