<flow:flow name="NucleusRH.Base.Tiempos_Trabajados.Tipos_Horas.COLOR.guia" extends="Nomad.simple.guia.flow" xmlns:doc="nomad_engine.form" xmlns:qry="nomad_engine.form" xmlns:flow="nomad_engine.form">
	<flow:info label="Flow guia para NucleusRH.Base.Tiempos_Trabajados.Tipos_Horas.COLOR.guia"/>
	<flow:main doc="SOURCE">
		<flow:action name="HELP">
			<flow:log text-path="#SOURCE:" text="ppsource"/>
			<flow:open-form form-class="NucleusRH.Base.Tiempos_Trabajados.Tipos_Horas.COLOR.guia.form" doc-path="#SOURCE:" mode="EDIT"/>
		</flow:action>
	</flow:main>
	<flow:declare>
		<doc:define class="NucleusRH.Base.Tiempos_Trabajados.Tipos_Horas.TIPOHORA" name="DDOTH"/>
	</flow:declare>
	<flow:form form-class="NucleusRH.Base.Tiempos_Trabajados.Tipos_Horas.COLOR.guia.form" mode="EDIT" name="NucleusRH.Base.Tiempos_Trabajados.Tipos_Horas.COLOR.guia.form:EDIT" parent-doc="INVAL" doc="REPORT">
		<flow:action name="CANCEL">
			<flow:close-form/>
		</flow:action>
		<flow:action name="SAVE">
			<doc:new-object class="NucleusRH.Base.Tiempos_Trabajados.Tipos_Horas.TIPOHORA" doc="DDOTH"/>
			<doc:load-object class="NucleusRH.Base.Tiempos_Trabajados.Tipos_Horas.TIPOHORA" id-path="#SOURCE:@id" doc="DDOTH"/>
			<doc:set-attribute from-attr-path="#SOURCE:@color" to-attr-path="#DDOTH:@c_color"/>
			<doc:save-object class="NucleusRH.Base.Tiempos_Trabajados.Tipos_Horas.TIPOHORA" doc="DDOTH"/>
			<flow:close-form next-action="After-Change-Color"/>
		</flow:action>
	</flow:form>
</flow:flow>
