<flow:flow name="NucleusRH.Base.Tiempos_Trabajados.Tipos_Horas.TIPOHORA.guia.flow" extends="NucleusRH.Base.Tiempos_Trabajados.Tipos_Horas.TIPOHORA.guia.autoflow" xmlns:doc="nomad_engine.form" xmlns:qry="nomad_engine.form" xmlns:flow="nomad_engine.form">
	<flow:info label="Flow guia para NucleusRH.Base.Tiempos_Trabajados.Tipos_Horas.TIPOHORA"/>
	<flow:main doc="SOURCE"/>
	<flow:declare>
		<qry:define declare="&lt;helper-mess id=&quot;1&quot;/&gt;" name="X2C">
			<qry:main doc="SOURCE">
				<qry:element name="ROW">
					<qry:insert-select doc-path="#SOURCE:" name="RS1"/>
				</qry:element>
			</qry:main>
			<qry:select doc="SOURCE" name="RS1">
				<qry:xquery>
					for $r in sql('
				SELECT t.oi_tipohora as ID, t.c_tipohora as CODE, 
				t.d_tipohora as TEXT, t.n_coeficiente_fc,
				SEC.policy  
				FROM TTA01_TIPOHORAS as t, NMD_SECURITY(class=\'NucleusRH.Base.Tiempos_Trabajados.Tipos_Horas.TIPOHORA\') as SEC 
				JOIN t.oi_tipohora LEFT OUTER SEC.id  
				WHERE t.oi_tipohora={#SOURCE:helper-mess/@ID} 
				ORDER BY CODE asc
			')/ROWS/ROW
				</qry:xquery>
				<qry:out>
					<qry:attribute value="$r/@ID" name="id"/>
					<qry:attribute value="$r/@ID" name="value"/>
					<qry:attribute value="$r/@CODE" name="code"/>
					<qry:attribute value="$r/@TEXT" name="text"/>
					<qry:attribute value="$r/@n_coeficiente_fc" name="n_coeficiente_fc"/>
				</qry:out>
			</qry:select>
		</qry:define>
		<qry:define declare="&lt;helper-mess code=&quot;AFC&quot;/&gt;" name="C2X">
			<qry:main doc="SOURCE">
				<qry:append-doc doc-path="#SOURCE:helper-mess" name="INDOC"/>
				<qry:element name="ROW">
					<qry:insert-select doc-path="#SOURCE:" name="RS1"/>
				</qry:element>
			</qry:main>
			<qry:select doc="SOURCE" name="RS1">
				<qry:xquery>
					for $r in sql('
				SELECT t.oi_tipohora as ID, t.c_tipohora as CODE, 
				t.d_tipohora as TEXT, t.n_coeficiente_fc,
				SEC.policy  
				FROM TTA01_TIPOHORAS as t, NMD_SECURITY(class=\'NucleusRH.Base.Tiempos_Trabajados.Tipos_Horas.TIPOHORA\') as SEC 
				JOIN t.oi_tipohora LEFT OUTER SEC.id  WHERE t.c_tipohora={substring_before(#INDOC:@CODE,\'-\')}  
				ORDER BY CODE asc
			')/ROWS/ROW
				</qry:xquery>
				<qry:out>
					<qry:attribute value="$r/@policy" name="policy"/>
					<qry:attribute value="''" name="SUB_SEARCH"/>
					<qry:attribute value="''" name="PARENTID"/>
					<qry:attribute value="$r/@ID" name="id"/>
					<qry:attribute value="$r/@ID" name="value"/>
					<qry:attribute value="$r/@CODE" name="code"/>
					<qry:attribute value="$r/@TEXT" name="text"/>
					<qry:attribute value="$r/@n_coeficiente_fc" name="n_coeficiente_fc"/>
				</qry:out>
			</qry:select>
		</qry:define>
		<qry:define name="HELP">
			<qry:main doc="SOURCE">
				<qry:element name="ROWS">
					<qry:insert-select doc-path="#SOURCE:" name="RS1"/>
				</qry:element>
			</qry:main>
			<qry:select doc="SOURCE" name="RS1">
				<qry:xquery>
					for $r in sql('
				SELECT t.oi_tipohora as ID, t.c_tipohora as CODE, 
				t.d_tipohora as TEXT, t.n_coeficiente_fc,
				SEC.policy  
				FROM TTA01_TIPOHORAS as t, NMD_SECURITY(class=\'NucleusRH.Base.Tiempos_Trabajados.Tipos_Horas.TIPOHORA\') as SEC 
				JOIN t.oi_tipohora LEFT OUTER SEC.id  
				ORDER BY CODE asc
			')/ROWS/ROW
				</qry:xquery>
				<qry:out>
					<qry:element name="ROW">
						<qry:attribute value="$r/@ID" name="id"/>
						<qry:attribute value="$r/@ID" name="value"/>
						<qry:attribute value="$r/@CODE" name="code"/>
						<qry:attribute value="$r/@TEXT" name="text"/>
						<qry:attribute value="$r/@policy" name="policy"/>
						<qry:attribute value="$r/@n_coeficiente_fc" name="n_coeficiente_fc"/>
					</qry:element>
				</qry:out>
			</qry:select>
		</qry:define>
	</flow:declare>
</flow:flow>
