<flow:flow xmlns:flow="nomad_engine.flow" xmlns:doc="nomad_engine.doc" xmlns:qry="nomad_engine.qry" name="NucleusWF.Base.Definicion.Workflows.NODE">
	<flow:info label="Flow guia para NucleusWF.Base.Definicion.Organigramas.ESTRUCTURA"/>
	<flow:declare>
		<doc:define name="PARENT"/>
		<doc:define name="METHOD"/>
		<doc:define name="SELECT"/>
		<doc:define name="DDO"/>
		<doc:define name="DOC_PARAMS"/>
		<qry:define name="SUBPROCESS" declare="&lt;PARAMS PARENT=&quot;1&quot; MODE=&quot;GRID&quot; /&gt;">
			<qry:main doc="SOURCE">
				<ROWS>
					<qry:insert-select name="sql1" doc-path="#SOURCE:PARAMS"/>
				</ROWS>
			</qry:main>
			<qry:select name="sql1" doc="SOURCE">
				<qry:xquery>
					for $r in SQL('
select
  PRO2.c_process,
  PRO2.d_process
from
  WRK01_PROCESS as PRO1,
	WRK01_PROCESS as PRO2
join
	PRO1.oi_wf inner PRO2.oi_wf
where             
	PRO2.e_automatico=0 AND
	PRO1.oi_process = {#SOURCE:@PARENT}	AND
	PRO2.oi_process != {#SOURCE:@PARENT}
  			')/ROWS/ROW
				</qry:xquery>
				<qry:out>
					<option>
						<qry:attribute name="value" value="$r/@c_process"/>
						<qry:attribute name="text" value="$r/@d_process"/>
					</option>
				</qry:out>
			</qry:select>
		</qry:define>
		<doc:define name="SUBPROCESS"/>
		<qry:define name="WFS" declare="&lt;PARAMS PARENT=&quot;1&quot; MODE=&quot;GRID&quot; /&gt;">
			<qry:main doc="SOURCE">
				<ROWS>
					<qry:insert-select name="sql1" doc-path="#SOURCE:PARAMS"/>
				</ROWS>
			</qry:main>
			<qry:select name="sql1" doc="SOURCE">
				<qry:xquery>
					for $r in SQL('
select
  WRK01_WF.c_wf,
  WRK01_WF.d_wf
from
  WRK01_WF
where             
	WRK01_WF.l_automatica=0
  			')/ROWS/ROW
				</qry:xquery>
				<qry:out>
					<option>
						<qry:attribute name="value" value="$r/@c_wf"/>
						<qry:attribute name="text" value="$r/@d_wf"/>
					</option>
				</qry:out>
			</qry:select>
		</qry:define>
		<doc:define name="WFS"/>
		<qry:define name="STATUS" declare="&lt;PARAMS PARENT=&quot;1&quot; MODE=&quot;GRID&quot; /&gt;">
			<qry:main doc="SOURCE">
				<ROWS>
					<qry:insert-select name="sql1" doc-path="#SOURCE:PARAMS"/>
				</ROWS>
			</qry:main>
			<qry:select name="sql1" doc="SOURCE">
				<qry:xquery>
					for $r in SQL('
select
  WRK01_ESTADOS.c_estado,
  WRK01_ESTADOS.d_estado
from
  WRK01_ESTADOS,
  WRK01_PROCESS
join
	WRK01_PROCESS.oi_wf INNER WRK01_ESTADOS.oi_wf
where             
	WRK01_PROCESS.oi_process = {#SOURCE:@PARENT}
  			')/ROWS/ROW
				</qry:xquery>
				<qry:out>
					<option>
						<qry:attribute name="value" value="$r/@c_estado"/>
						<qry:attribute name="text" value="$r/@d_estado"/>
					</option>
				</qry:out>
			</qry:select>
		</qry:define>
		<doc:define name="STATUS"/>
		<qry:define name="BODY" declare="&lt;PARAMS PARENT=&quot;3&quot; MODE=&quot;GRID&quot; /&gt;">
			<qry:main doc="SOURCE">
				<ROWS>
					<qry:insert-select name="sql1" doc-path="#SOURCE:PARAMS"/>
				</ROWS>
			</qry:main>
			<qry:select name="sql1" doc="SOURCE">
				<qry:xquery>
					for $r in SQL('
select
  WRK01_NODE_TEXTS.c_text
from
  WRK01_NODE_TEXTS,
  WRK01_PROCESS
join
	WRK01_PROCESS.oi_wf INNER WRK01_NODE_TEXTS.oi_wf
where             
	WRK01_PROCESS.oi_process = {#SOURCE:@PARENT}
  			')/ROWS/ROW
				</qry:xquery>
				<qry:out>
					<option>
						<qry:attribute name="value" value="$r/@c_text"/>
						<qry:attribute name="text" value="$r/@c_text"/>
					</option>
				</qry:out>
			</qry:select>
		</qry:define>
		<doc:define name="BODY"/>
		<qry:define name="FORMS" declare="&lt;PARAMS PARENT=&quot;3&quot; MODE=&quot;GRID&quot; /&gt;">
			<qry:main doc="SOURCE">
				<ROWS>
					<qry:insert-select name="sql1" doc-path="#SOURCE:PARAMS"/>
				</ROWS>
			</qry:main>
			<qry:select name="sql1" doc="SOURCE">
				<qry:xquery>
					for $r in SQL('
select
  WRK01_FORMS.c_form,
  WRK01_FORMS.d_form
from
  WRK01_FORMS,
  WRK01_PROCESS
join
	WRK01_PROCESS.oi_wf INNER WRK01_FORMS.oi_wf
where             
	WRK01_PROCESS.oi_process = {#SOURCE:@PARENT}
  			')/ROWS/ROW
				</qry:xquery>
				<qry:out>
					<option>
						<qry:attribute name="value" value="$r/@c_form"/>
						<qry:attribute name="text" value="$r/@d_form"/>
					</option>
				</qry:out>
			</qry:select>
		</qry:define>
		<doc:define name="FORMS"/>
		<qry:define declare="&lt;PARAMS PARENT=&quot;1&quot; MODE=&quot;DB&quot; /&gt;" name="METHODS">
			<qry:main doc="SOURCE">
				<ROWS>
					<qry:insert-select name="sql1" doc-path="#SOURCE:PARAMS"/>
				</ROWS>
			</qry:main>
			<qry:select name="sql1" doc="SOURCE">
				<qry:xquery>
					for $r in SQL('
select
  WRK04_INT_MAN.c_int_mag,
  WRK04_INT_MAN.d_int_mag
from
  WRK04_INT_MAN
where             
	WRK04_INT_MAN.c_type={#SOURCE:@MODE}
  			')/ROWS/ROW
				</qry:xquery>
				<qry:out>
					<option>
						<qry:attribute name="value" value="$r/@c_int_mag"/>
						<qry:attribute name="text" value="$r/@d_int_mag"/>
					</option>
				</qry:out>
			</qry:select>
		</qry:define>
		<doc:define name="METHODS"/>
		<qry:define declare="&lt;NODE descr=&quot;Nuevo&quot; nmd-status=&quot;~i,n_secuence,c_type,d_label,d_param_1,d_param_2,&quot; n_secuence=&quot;12582912&quot; c_type=&quot;XQUERY&quot; d_label=&quot;Llamar al query TEST 9&quot; d_param_1=&quot;TEST 9&quot; d_param_2=&quot;CHILD&quot;&gt;&#13;&#10;&lt;NODE_PARAMS nmd-col=&quot;1&quot; /&gt;&#13;&#10;&lt;ROLES_NODE nmd-col=&quot;1&quot; /&gt;&#13;&#10;&lt;/NODE&gt;" name="PARAMS_IN">
			<qry:main doc="SOURCE">
				<ROWS>
					<qry:append-doc name="APPEND" doc-path="#SOURCE:NODE"/>
					<qry:insert-select name="sql1" doc-path="#SOURCE:NODE"/>
				</ROWS>
			</qry:main>
			<qry:select name="sql1" doc="SOURCE">
				<qry:xquery>
					for $r in SQL('
select
  PAR.oi_param,
  PAR.c_param,
  PAR.c_type,
  PAR.c_io
from
  WRK04_PARAMS as PAR,
  WRK04_INT_MAN as INT
join
	INT.oi_int_mag INNER PAR.oi_int_mag	
where             
	INT.c_int_mag = {#SOURCE:@d_param_1} AND
	isNull(PAR.oi_param_x) AND
	PAR.c_io = \'IN\'
  			')/ROWS/ROW
				</qry:xquery>
				<qry:out>
					<ROW>
						<qry:attribute name="id" value="$r/@oi_param"/>
						<qry:attribute name="c_param" value="$r/@c_param"/>
						<qry:attribute name="c_type" value="$r/@c_type"/>
						<qry:attribute name="c_io" value="$r/@c_io"/>
						<qry:insert-select name="sql2" doc-path="."/>
					</ROW>
				</qry:out>
			</qry:select>
			<qry:select name="sql2" doc="SOURCE">
				<qry:xquery>
					for $r in SQL('
select
  NODE.o_formula,
  NODE.c_var
from
  WRK01_NODE_PARAMS as NODE
where             
	NODE.c_param = {#SOURCE:@c_param} AND
	NODE.oi_node = {#APPEND:@id}
  			')/ROWS/ROW
				</qry:xquery>
				<qry:out>
					<qry:attribute name="o_formula" value="$r/@o_formula"/>
					<qry:attribute name="c_var" value="$r/@c_var"/>
				</qry:out>
			</qry:select>
		</qry:define>
		<doc:define name="PARAMS_IN"/>
		<qry:define declare="&lt;NODE descr=&quot; - [309] Llamar al m&#233;todo TEST 6&quot; d_param_2=&quot;RETURN&quot; d_param_1=&quot;TEST 6&quot; d_label=&quot;Llamar al m&#233;todo TEST 6&quot; n_secuence=&quot;2154496&quot; c_type=&quot;METHOD&quot; oi_process=&quot;3&quot; id=&quot;309&quot; nmd-status=&quot;~u,d_param_2,&quot;&gt;&#13;&#10;&lt;oi_role nmd-agr=&quot;1&quot; /&gt;&#13;&#10;&lt;NODE_PARAMS nmd-col=&quot;1&quot;&gt;&#13;&#10;&lt;PARAM descr=&quot; - [309] Llamar al m&#233;todo TEST 6 - [P1] &quot; o_formula=&quot;aa&quot; c_type=&quot;double&quot; c_param=&quot;P1&quot; oi_node=&quot;309&quot; id=&quot;304&quot; /&gt;&#13;&#10;&lt;PARAM descr=&quot; - [309] Llamar al m&#233;todo TEST 6 - [P4] &quot; o_formula=&quot;sss&quot; c_type=&quot;NomadXML&quot; c_param=&quot;P4&quot; oi_node=&quot;309&quot; id=&quot;305&quot; /&gt;&#13;&#10;&lt;PARAM descr=&quot; - [309] Llamar al m&#233;todo TEST 6 - [P3] &quot; c_var=&quot;dddd&quot; c_type=&quot;string&quot; c_param=&quot;P3&quot; oi_node=&quot;309&quot; id=&quot;306&quot; /&gt;&#13;&#10;&lt;/NODE_PARAMS&gt;&#13;&#10;&lt;/NODE&gt;" name="PARAMS_OUT">
			<qry:main doc="SOURCE">
				<ROWS>
					<qry:append-doc name="APPEND" doc-path="#SOURCE:NODE"/>
					<qry:insert-select name="sql1" doc-path="#SOURCE:NODE"/>
				</ROWS>
			</qry:main>
			<qry:select name="sql1" doc="SOURCE">
				<qry:xquery>
					for $r in SQL('
select
  PAR.oi_param,
  PAR.c_param,
  PAR.c_type,
  PAR.c_io
from
  WRK04_PARAMS as PAR,
  WRK04_INT_MAN as INT
join
	INT.oi_int_mag INNER PAR.oi_int_mag
where             
	INT.c_int_mag = {#SOURCE:@d_param_1} AND
	PAR.c_io = \'IO\'
  			')/ROWS/ROW
				</qry:xquery>
				<qry:out>
					<ROW>
						<qry:attribute name="id" value="$r/@oi_param"/>
						<qry:attribute name="c_param" value="$r/@c_param"/>
						<qry:attribute name="c_type" value="$r/@c_type"/>
						<qry:attribute name="c_io" value="$r/@c_io"/>
						<qry:insert-select name="sql2" doc-path="."/>
					</ROW>
				</qry:out>
			</qry:select>
			<qry:select name="sql2" doc="SOURCE">
				<qry:xquery>
					for $r in SQL('
select
  NODE.o_formula,
  NODE.c_var
from
  WRK01_NODE_PARAMS as NODE
where             
	NODE.c_param = {#SOURCE:@c_param} AND
	NODE.oi_node = {#APPEND:@id}
  			')/ROWS/ROW
				</qry:xquery>
				<qry:out>
					<qry:attribute name="o_formula" value="$r/@o_formula"/>
					<qry:attribute name="c_var" value="$r/@c_var"/>
				</qry:out>
			</qry:select>
		</qry:define>
		<doc:define name="PARAMS_OUT"/>
		<qry:define declare="&lt;PARAMS PARENT=&quot;1&quot; MODE=&quot;XQUERY&quot; d_param_2=&quot;CHILD&quot;/&gt;" name="PARAMS_RET">
			<qry:main doc="SOURCE">
				<ROWS>
					<qry:append-doc name="APPEND" doc-path="#SOURCE:PARAMS"/>
					<qry:insert-select name="sql1" doc-path="#SOURCE:PARAMS"/>
				</ROWS>
			</qry:main>
			<qry:select name="sql1" doc="SOURCE">
				<qry:xquery>
					for $r in SQL('
select
  WRK01_VARS.oi_var,
  WRK01_VARS.c_var,
  WRK01_VARS.d_var,
  WRK01_VARS.c_type
from
  WRK01_GROUPS,
  WRK01_VARS,
  WRK01_PROCESS
join
	WRK01_PROCESS.oi_wf INNER WRK01_GROUPS.oi_wf,
	WRK01_GROUPS.oi_var_group INNER WRK01_VARS.oi_var_group
where             
	WRK01_PROCESS.oi_process = {#SOURCE:@PARENT} AND
	WRK01_GROUPS.c_var_group = {#SOURCE:@d_param_2}
  			')/ROWS/ROW
				</qry:xquery>
				<qry:out>
					<ROW>
						<qry:attribute name="id" value="$r/@oi_var"/>
						<qry:attribute name="c_param" value="$r/@c_var"/>
						<qry:attribute name="c_type" value="$r/@c_type"/>
						<qry:attribute name="d_var" value="$r/@d_var"/>
						<qry:insert-select name="sql2" doc-path="."/>
					</ROW>
				</qry:out>
			</qry:select>
			<qry:select name="sql2" doc="SOURCE">
				<qry:xquery>
					for $r in SQL('
select
  NODE.o_formula,
  NODE.c_var
from
  WRK01_NODE_PARAMS as NODE
where             
	NODE.c_param = {#SOURCE:@c_param} AND
	NODE.oi_node = {#APPEND:@id}
  			')/ROWS/ROW
				</qry:xquery>
				<qry:out>
					<qry:attribute name="o_formula" value="$r/@o_formula"/>
					<qry:attribute name="c_var" value="$r/@c_var"/>
				</qry:out>
			</qry:select>
		</qry:define>
		<doc:define name="PARAMS_RET"/>
		<qry:define declare="&lt;PARAMS PARENT=&quot;308&quot; ID=&quot;528&quot; ADD=&quot;0&quot; /&gt;" name="ROLES">
			<qry:main doc="SOURCE">
				<ROWS>
					<qry:insert-select name="sql1" doc-path="#SOURCE:PARAMS"/>
				</ROWS>
			</qry:main>
			<qry:select name="sql1" doc="SOURCE">
				<qry:xquery>
					for $r in SQL('
select
  ROLES.oi_role,
  ROLES.c_role,
  ROLES.d_role
from
  WRK05_ROLES as ROLES,
  WRK05_ORGANIGRAMAS as ORG,
  WRK01_WF as WF,
  WRK01_PROCESS as PRO
join
PRO.oi_wf INNER WF.oi_wf,
WF.oi_organigrama INNER ORG.oi_organigrama,
ORG.oi_organigrama INNER ROLES.oi_organigrama
where             
PRO.oi_process = {#SOURCE:@PARENT}
  			')/ROWS/ROW
				</qry:xquery>
				<qry:out>
					<ROW>
						<qry:attribute name="id" value="$r/@oi_role"/>
						<qry:attribute name="oi_role" value="$r/@oi_role"/>
						<qry:attribute name="PARENT" value="#SOURCE:@PARENT"/>
						<qry:attribute name="ID_NODE" value="#SOURCE:@ID"/>
						<qry:attribute name="c_role" value="'['+$r/@c_role+'] ' + $r/@d_role"/>
						<qry:attribute name="cod" value="$r/@c_role"/>
						<qry:if test="#SOURCE:@ADD = 0">
							<qry:then>
								<qry:insert-select name="sql2" doc-path="."/>
							</qry:then>
						</qry:if>
					</ROW>
				</qry:out>
			</qry:select>
			<qry:select name="sql2" doc="SOURCE">
				<qry:xquery>
					for $r in SQL('
select
  ROL.oi_role_node,
  ROL.c_notificar,
  ROL.c_resolver,
  ROL.d_rol_delega,
  ROL.c_puede_deleg
from
  WRK01_PROCESS as PRO,
  WRK01_NODES as NOD,
  WRK01_ROLES_NODE as ROL
join
PRO.oi_process INNER NOD.oi_process,
NOD.oi_node INNER ROL.oi_node 	
where             
NOD.oi_node = {#SOURCE:@ID_NODE} AND
ROL.c_rol = {#SOURCE:@cod}
  			')/ROWS/ROW
				</qry:xquery>
				<qry:out>
					<qry:attribute name="oi_role_node" value="$r/@oi_role_node"/>
					<qry:attribute name="c_notificar" value="$r/@c_notificar"/>
					<qry:attribute name="c_resolver" value="$r/@c_resolver"/>
					<qry:attribute name="c_puede_deleg" value="$r/@c_puede_deleg"/>
					<qry:attribute name="d_rol_delega" value="$r/@d_rol_delega"/>
				</qry:out>
			</qry:select>
		</qry:define>
		<doc:define name="ROLES"/>
		<qry:define declare="&lt;PARAMS PARENT=&quot;106&quot; SECUENCE=&quot;14680064&quot; MODE=&quot;DB&quot; /&gt;" name="XQUERY">
			<qry:main doc="SOURCE">
				<ROWS>
					<qry:insert-select name="sql1" doc-path="#SOURCE:PARAMS"/>
				</ROWS>
			</qry:main>
			<qry:select name="sql1" doc="SOURCE">
				<qry:xquery>
					for $r in SQL('
select
  WRK01_GROUPS.c_var_group,
  WRK01_GROUPS.d_var_group
from
  WRK01_GROUPS,
  WRK01_PROCESS
join           
	WRK01_PROCESS.oi_wf INNER WRK01_GROUPS.oi_wf
where             
	WRK01_PROCESS.oi_process={#SOURCE:@PARENT} AND
	WRK01_GROUPS.c_mode IN (\'CHILD\', \'ARRAUX\')
  			')/ROWS/ROW
				</qry:xquery>
				<qry:out>
					<option>
						<qry:attribute name="value" value="$r/@c_var_group"/>
						<qry:attribute name="text" value="$r/@d_var_group"/>
					</option>
				</qry:out>
			</qry:select>
		</qry:define>
		<doc:define name="XQUERY"/>
		<doc:define name="FORM_MODE">
			<ROW/>
		</doc:define>
		<qry:define declare="&lt;PARAMS PARENT=&quot;3&quot; ID=&quot;3&quot; /&gt;" name="getNode">
			<qry:main doc="SOURCE">
				<ROW>
					<qry:insert-select name="sql1" doc-path="#SOURCE:PARAMS"/>
					<qry:if test="#SOURCE:PARAMS/@ID != ''">
						<qry:then>
							<qry:insert-select name="sql4" doc-path="#SOURCE:PARAMS"/>
						</qry:then>
						<qry:else/>
					</qry:if>
				</ROW>
			</qry:main>
			<qry:select name="sql1" doc="SOURCE">
				<qry:xquery>
					for $r in SQL('
select
  WRK01_NODES.c_type,
  WRK01_PROCESS.oi_process,
  WRK01_PROCESS.c_process,
  WRK01_PROCESS.oi_wf
from
  WRK01_NODES,
  WRK01_PROCESS
join
	WRK01_NODES.oi_process INNER WRK01_PROCESS.oi_process
where             
	WRK01_NODES.oi_node={#SOURCE:@PARENT}
  			')/ROWS/ROW
				</qry:xquery>
				<qry:out>
					<qry:attribute name="c_type" value="$r/@c_type"/>
					<qry:attribute name="oi_process" value="$r/@oi_process"/>
					<qry:attribute name="c_process" value="$r/@c_process"/>
					<qry:attribute name="oi_wf" value="$r/@oi_wf"/>
					<qry:attribute name="PARENT" value="#SOURCE:@PARENT"/>
					<qry:insert-select name="sql2" doc-path="."/>
					<qry:insert-select name="sql3" doc-path="."/>
				</qry:out>
			</qry:select>
			<qry:select name="sql2" doc="SOURCE">
				<qry:xquery>
					for $r in SQL('
select
  MAX(WRK01_NODE_PARAMS.e_orden) as e_orden
from
  WRK01_NODE_PARAMS  
where             
	WRK01_NODE_PARAMS.oi_node={#SOURCE:@PARENT}        
  			')/ROWS/ROW
				</qry:xquery>
				<qry:out>
					<qry:attribute name="e_orden" value="iif($r/@e_orden='', 1, Number($r/@e_orden)+1)"/>
				</qry:out>
			</qry:select>
			<qry:select name="sql3" doc="SOURCE">
				<qry:xquery>
					for $r in SQL('
select
  MAX(PRO2.e_automatico) as e_automatico
from
  WRK01_PROCESS as PRO1,
  WRK01_PROCESS as PRO2
join
	PRO1.oi_wf INNER PRO2.oi_wf
where             
	PRO1.oi_process={#SOURCE:@oi_process}
	')/ROWS/ROW
				</qry:xquery>
				<qry:out>
					<qry:attribute name="e_automatico" value="iif($r/@e_automatico='', 1, Number($r/@e_automatico)+1)"/>
				</qry:out>
			</qry:select>
			<qry:select name="sql4" doc="SOURCE">
				<qry:xquery>
					for $r in SQL('
select
 WRK01_NODE_PARAMS.oi_param 
from
	WRK01_NODES,
  WRK01_NODE_PARAMS
join
	WRK01_NODES.oi_node INNER WRK01_NODE_PARAMS.oi_node
where             
	WRK01_NODE_PARAMS.e_subproceso={#SOURCE:@ID} AND
	WRK01_NODES.oi_node={#SOURCE:@PARENT}
	')/ROWS/ROW
				</qry:xquery>
				<qry:out>
					<qry:attribute name="oi_param" value="$r/@oi_param"/>
				</qry:out>
			</qry:select>
		</qry:define>
		<doc:define name="NODE">
			<ROW/>
		</doc:define>
		<doc:define name="DDO_PARAM"/>
		<doc:define name="DDO_PROCESS"/>
		<doc:define name="DDO_WF"/>
		<doc:define name="DESTINATARIOS">
			<ROWS/>
		</doc:define>
		<qry:define declare="&lt;ROWS d_param=&quot;&quot;&gt;&#13;&#10;&#9;&lt;ROW destinatario=&quot;Env&#237;o al Rol: OWNER&quot; id=&quot;1&quot; /&gt;&#13;&#10;&lt;/ROWS&gt;" name="qryDestinatarios">
			<qry:main doc="SOURCE">
				<ROW>
					<qry:insert-select name="sql1" doc-path="#SOURCE:ROWS"/>
					<qry:attribute name="id" value="iif(@id='',1,@id)"/>
				</ROW>
			</qry:main>
			<qry:select name="sql1" doc="SOURCE">
				<qry:xquery>
					for $r in #SOURCE:ROW
				</qry:xquery>
				<qry:out>
					<qry:attribute name="id" value="Number($r/@id)+1"/>
				</qry:out>
			</qry:select>
		</qry:define>
		<doc:define name="RESULT">
			<ROW id=""/>
		</doc:define>
		<qry:define name="ROLES_COMBO" declare="&lt;PARAMS PARENT=&quot;208&quot; ID=&quot;329&quot; /&gt;">
			<qry:main doc="SOURCE">
				<ROWS>
					<qry:insert-select name="sql1" doc-path="#SOURCE:PARAMS"/>
				</ROWS>
			</qry:main>
			<qry:select name="sql1" doc="SOURCE">
				<qry:xquery>
					for $r in SQL('
select
  ROLES.oi_role,
  ROLES.c_role,
  ROLES.d_role
from
  WRK05_ROLES as ROLES,
  WRK05_ORGANIGRAMAS as ORG,
  WRK01_WF as WF,
  WRK01_PROCESS as PRO
join
	PRO.oi_wf INNER WF.oi_wf,
	WF.oi_organigrama INNER ORG.oi_organigrama,
	ORG.oi_organigrama INNER ROLES.oi_organigrama
where             
	PRO.oi_process = {#SOURCE:@PARENT}
  			')/ROWS/ROW
				</qry:xquery>
				<qry:out>
					<option>
						<qry:attribute name="id" value="$r/@oi_role"/>
						<qry:attribute name="value" value="$r/@c_role"/>
						<qry:attribute name="text" value="$r/@d_role"/>
					</option>
				</qry:out>
			</qry:select>
		</qry:define>
		<doc:define name="DESTINATARIO">
			<ROW/>
		</doc:define>
		<qry:define name="DESTINATARIOS" declare="&lt;PARAMS PARENT=&quot;208&quot; ID=&quot;506&quot; /&gt;">
			<qry:main doc="SOURCE">
				<ROWS>
					<qry:insert-select name="sql1" doc-path="#SOURCE:PARAMS"/>
				</ROWS>
			</qry:main>
			<qry:select name="sql1" doc="SOURCE">
				<qry:xquery>
					for $r in SQL('
select
  WRK01_NODE_PARAMS.oi_node,
  WRK01_NODE_PARAMS.oi_param,
  WRK01_NODE_PARAMS.c_type,
  WRK01_NODE_PARAMS.c_param,
  WRK01_NODE_PARAMS.d_param,
  WRK01_NODE_PARAMS.o_formula,
  WRK01_NODE_PARAMS.d_valor
from
  WRK01_NODE_PARAMS
where             
	WRK01_NODE_PARAMS.oi_node = {#SOURCE:@ID}
  			')/ROWS/ROW
				</qry:xquery>
				<qry:out>
					<ROW>
						<qry:attribute name="id" value="$r/@oi_param"/>
						<qry:attribute name="c_type" value="$r/@c_type"/>
						<qry:attribute name="c_param" value="$r/@c_param"/>
						<qry:attribute name="d_param" value="$r/@d_param"/>
						<qry:attribute name="o_formula" value="$r/@o_formula"/>
						<qry:attribute name="d_valor" value="$r/@d_valor"/>
						<qry:attribute name="d_param1" value="$r/@d_valor"/>
						<qry:attribute name="d_param2" value="$r/@c_type"/>
						<qry:attribute name="destinatario" value="$r/@d_param"/>
					</ROW>
				</qry:out>
			</qry:select>
		</qry:define>
		<doc:define name="DOC_LISTA">
			<ROWS/>
		</doc:define>
		<doc:define name="RS_n_horas"/>
		<qry:define name="QRY_n_horas">
			<qry:include name="NucleusWF.Base.Definicion.Workflows.WF.HORAS"/>
			<qry:main doc="PARAM">
				<qry:element name="ROWS">
					<qry:insert-select name="SQL1" doc-path="#PARAM:."/>
				</qry:element>
			</qry:main>
		</qry:define>
		<doc:define name="WFS2"/>
		<qry:define name="WFS2" declare="&lt;PARAMS PARENT=&quot;1&quot; MODE=&quot;GRID&quot; /&gt;">
			<qry:main doc="SOURCE">
				<ROWS>
					<qry:insert-select name="sql1" doc-path="#SOURCE:."/>
				</ROWS>
			</qry:main>
			<qry:select name="sql1" doc="SOURCE">
				<qry:xquery>
					for $r in SQL('
select
  PRO1.c_process,
  PRO1.d_process
from
  WRK01_PROCESS as PRO1,
  WRK01_WF as WF               
join
	wf.oi_wf INNER PRO1.oi_wf
where             
	PRO1.e_automatico=0 AND        
	WF.l_automatica = 0 AND
	WF.c_wf = {#SOURCE:@d_param_1}
  			')/ROWS/ROW
				</qry:xquery>
				<qry:out>
					<option>
						<qry:attribute name="value" value="$r/@c_process"/>
						<qry:attribute name="text" value="$r/@d_process"/>
					</option>
				</qry:out>
			</qry:select>
		</qry:define>
	</flow:declare>
	<flow:main doc="SOURCE">
		<flow:action name="NODE_ADD">
			<flow:log text-path="#SOURCE:" text="LOG_ADD"/>
			<doc:set-attribute from-attr-path="#SOURCE:@PARENT" to-attr-path="#SELECT:@PARENT"/>
			<doc:set-attribute from-attr-path="#SOURCE:@oi_workflow" to-attr-path="#SELECT:@oi_workflow"/>
			<doc:new-object class="NucleusWF.Base.Definicion.Workflows.NODE" doc="DDO"/>
			<doc:set-attribute from-attr-path="#SOURCE:@SECUENCE" to-attr-path="#DDO:@n_secuence"/>
			<flow:call-action eq="STOP" if="#SOURCE:@MODE" action="OPEN_FORM_TERMINAR_ADD"/>
			<flow:call-action eq="SUBPROCESS" if="#SOURCE:@MODE" action="OPEN_FORM_SUBPRO_ADD"/>
			<flow:call-action action="OPEN_FORM_SWITCH_ADD" eq="SWITCH" if="#SOURCE:@MODE"/>
			<flow:call-action action="OPEN_FORM_PAR_ADD" eq="PAR" if="#SOURCE:@MODE"/>
			<flow:call-action action="OPEN_FORM_CALL_ADD" eq="CALL" if="#SOURCE:@MODE"/>
			<flow:call-action action="OPEN_FORM_LABEL_ADD" eq="LABEL" if="#SOURCE:@MODE"/>
			<flow:call-action action="OPEN_FORM_GOTO_ADD" eq="GOTO" if="#SOURCE:@MODE"/>
			<flow:call-action action="OPEN_FORM_WAIT_TIME_ADD" eq="WAIT_TIME" if="#SOURCE:@MODE"/>
			<flow:call-action action="OPEN_FORM_WAIT_TO_ADD" eq="WAIT_TO" if="#SOURCE:@MODE"/>
			<flow:call-action action="OPEN_FORM_VAR_ADD" eq="VAR" if="#SOURCE:@MODE"/>
			<flow:call-action action="OPEN_FORM_STATUS_ADD" eq="STATUS" if="#SOURCE:@MODE"/>
			<flow:call-action action="OPEN_FORM_MAIL_ADD" eq="MAIL" if="#SOURCE:@MODE"/>
			<flow:call-action action="OPEN_FORM_LOG_ADD" eq="LOG" if="#SOURCE:@MODE"/>
			<flow:call-action action="OPEN_FORM_FORM_ADD" eq="FORM" if="#SOURCE:@MODE"/>
			<flow:call-action action="OPEN_FORM_METHOD_ADD" eq="METHOD" if="#SOURCE:@MODE"/>
			<flow:call-action action="OPEN_FORM_XQUERY_ADD" eq="XQUERY" if="#SOURCE:@MODE"/>
			<flow:call-action action="OPEN_FORM_DB_ADD" eq="DB" if="#SOURCE:@MODE"/>
			<flow:call-action eq="JSCRIPT" action="OPEN_FORM_JS_ADD" if="#SOURCE:@MODE"/>
			<flow:call-action eq="CSHARP" action="OPEN_FORM_CSHARP_ADD" if="#SOURCE:@MODE"/>
			<flow:call-action action="OPEN_FORM_SOAP_ADD" eq="SOAP" if="#SOURCE:@MODE"/>
			<flow:call-action action="OPEN_FORM_JSON_ADD" eq="JSON" if="#SOURCE:@MODE"/>
			<flow:call-action action="OPEN_FORM_PROCESS_ADD" eq="PROCESS" if="#SOURCE:@MODE"/>
			<flow:call-action action="OPEN_FORM_SP_ADD" eq="SP" if="#SOURCE:@MODE"/>
			<flow:call-action eq="VENC" action="OPEN_FORM_VENC_ADD" if="#SOURCE:@MODE"/>
		</flow:action>
		<flow:action name="NODE_EDIT">
			<doc:set-attribute from-attr-path="#SOURCE:@ID" to-attr-path="#SELECT:@ID"/>
			<doc:set-attribute from-attr-path="#SOURCE:@PARENT" to-attr-path="#SELECT:@PARENT"/>
			<doc:set-attribute from-attr-path="#SOURCE:@oi_workflow" to-attr-path="#SELECT:@oi_workflow"/>
			<doc:new-object class="NucleusWF.Base.Definicion.Workflows.NODE" doc="DDO"/>
			<doc:load-object class="NucleusWF.Base.Definicion.Workflows.NODE" id-path="#SOURCE:@ID" doc="DDO" load-child="1" load-all="1"/>
			<flow:call-action action="OPEN_FORM_INI_EDIT" eq="INI" if="#DDO:@c_type"/>
			<flow:call-action action="OPEN_FORM_FIN_EDIT" eq="FIN" if="#DDO:@c_type"/>
			<flow:call-action action="OPEN_FORM_TERMINAR_EDIT" eq="STOP" if="#DDO:@c_type"/>
			<flow:call-action action="OPEN_FORM_SUBPRO_EDIT" eq="SUBPROCESS" if="#DDO:@c_type"/>
			<flow:call-action action="OPEN_FORM_SWITCH_EDIT" eq="SWITCH" if="#DDO:@c_type"/>
			<flow:call-action action="OPEN_FORM_PAR_EDIT" eq="PAR" if="#DDO:@c_type"/>
			<flow:call-action action="OPEN_FORM_CALL_EDIT" eq="CALL" if="#DDO:@c_type"/>
			<flow:call-action action="OPEN_FORM_LABEL_EDIT" eq="LABEL" if="#DDO:@c_type"/>
			<flow:call-action action="OPEN_FORM_GOTO_EDIT" eq="GOTO" if="#DDO:@c_type"/>
			<flow:call-action action="OPEN_FORM_WAIT_TIME_EDIT" eq="WAIT_TIME" if="#DDO:@c_type"/>
			<flow:call-action action="OPEN_FORM_WAIT_TO_EDIT" eq="WAIT_TO" if="#DDO:@c_type"/>
			<flow:call-action action="OPEN_FORM_VAR_EDIT" eq="VAR" if="#DDO:@c_type"/>
			<flow:call-action action="OPEN_FORM_STATUS_EDIT" eq="STATUS" if="#DDO:@c_type"/>
			<flow:call-action action="OPEN_FORM_MAIL_EDIT" eq="MAIL" if="#DDO:@c_type"/>
			<flow:call-action action="OPEN_FORM_LOG_EDIT" eq="LOG" if="#DDO:@c_type"/>
			<flow:call-action action="OPEN_FORM_FORM_EDIT" eq="FORM" if="#DDO:@c_type"/>
			<flow:call-action action="OPEN_FORM_METHOD_EDIT" eq="METHOD" if="#DDO:@c_type"/>
			<flow:call-action action="OPEN_FORM_XQUERY_EDIT" eq="XQUERY" if="#DDO:@c_type"/>
			<flow:call-action action="OPEN_FORM_DB_EDIT" eq="DB" if="#DDO:@c_type"/>
			<flow:call-action eq="JSCRIPT" action="OPEN_FORM_JS_EDIT" if="#DDO:@c_type"/>
			<flow:call-action action="OPEN_FORM_CSHARP_EDIT" eq="CSHARP" if="#DDO:@c_type"/>
			<flow:call-action action="OPEN_FORM_SOAP_EDIT" eq="SOAP" if="#DDO:@c_type"/>
			<flow:call-action action="OPEN_FORM_JSON_EDIT" eq="JSON" if="#DDO:@c_type"/>
			<flow:call-action action="OPEN_FORM_PROCESS_EDIT" eq="PROCESS" if="#DDO:@c_type"/>
			<flow:call-action action="OPEN_FORM_SP_EDIT" eq="SP" if="#DDO:@c_type"/>
			<flow:call-action eq="VENC" action="OPEN_FORM_VENC_EDIT" if="#DDO:@c_type"/>
		</flow:action>
		<flow:action name="OPEN_FORM_INI_EDIT">
			<flow:open-form mode="INI_EDIT" form-class="NucleusWF.Base.Definicion.Workflows.NODE.form" parent-doc-path="#SOURCE:" doc-path="#SELECT:"/>
		</flow:action>
		<flow:action name="OPEN_FORM_FIN_EDIT">
			<flow:open-form mode="FIN_EDIT" form-class="NucleusWF.Base.Definicion.Workflows.NODE.form" parent-doc-path="#SOURCE:" doc-path="#SELECT:"/>
		</flow:action>
		<flow:action name="OPEN_FORM_TERMINAR_ADD">
			<flow:open-form mode="TERMINAR_ADD" form-class="NucleusWF.Base.Definicion.Workflows.NODE.form" parent-doc-path="#SOURCE:" doc-path="#SELECT:"/>
		</flow:action>
		<flow:action name="OPEN_FORM_TERMINAR_EDIT">
			<flow:open-form mode="TERMINAR_EDIT" form-class="NucleusWF.Base.Definicion.Workflows.NODE.form" parent-doc-path="#SOURCE:" doc-path="#SELECT:"/>
		</flow:action>
		<flow:action name="OPEN_FORM_SUBPRO_ADD">
			<flow:open-form mode="SUBPRO_ADD" form-class="NucleusWF.Base.Definicion.Workflows.NODE.form" parent-doc-path="#SOURCE:" doc-path="#SELECT:"/>
		</flow:action>
		<flow:action name="OPEN_FORM_SUBPRO_EDIT">
			<flow:open-form mode="SUBPRO_EDIT" form-class="NucleusWF.Base.Definicion.Workflows.NODE.form" parent-doc-path="#SOURCE:" doc-path="#SELECT:"/>
		</flow:action>
		<flow:action name="OPEN_FORM_SWITCH_ADD">
			<flow:open-form mode="SWITCH_ADD" form-class="NucleusWF.Base.Definicion.Workflows.NODE.form" parent-doc-path="#SOURCE:" doc-path="#SELECT:"/>
		</flow:action>
		<flow:action name="OPEN_FORM_SWITCH_EDIT">
			<flow:open-form mode="SWITCH_EDIT" form-class="NucleusWF.Base.Definicion.Workflows.NODE.form" parent-doc-path="#SOURCE:" doc-path="#SELECT:"/>
		</flow:action>
		<flow:action name="OPEN_FORM_PAR_ADD">
			<flow:open-form mode="PAR_ADD" form-class="NucleusWF.Base.Definicion.Workflows.NODE.form" parent-doc-path="#SOURCE:" doc-path="#SELECT:"/>
		</flow:action>
		<flow:action name="OPEN_FORM_PAR_EDIT">
			<flow:open-form mode="PAR_EDIT" form-class="NucleusWF.Base.Definicion.Workflows.NODE.form" parent-doc-path="#SOURCE:" doc-path="#SELECT:"/>
		</flow:action>
		<flow:action name="OPEN_FORM_CALL_ADD">
			<doc:new-object doc="DDO_PARAM" class="NucleusWF.Base.Definicion.Workflows.PARAM"/>
			<doc:set-attribute from-value="IN" to-attr-path="#DDO_PARAM:@c_type"/>
			<doc:add-object doc-path="#DDO_PARAM:" parent-doc-path="#DDO:NODE_PARAMS"/>
			<doc:new-object doc="DDO_PARAM" class="NucleusWF.Base.Definicion.Workflows.PARAM"/>
			<doc:set-attribute from-value="OUT" to-attr-path="#DDO_PARAM:@c_type"/>
			<doc:add-object doc-path="#DDO_PARAM:" parent-doc-path="#DDO:NODE_PARAMS"/>
			<flow:open-form mode="CALL_ADD" form-class="NucleusWF.Base.Definicion.Workflows.NODE.form" parent-doc-path="#SOURCE:" doc-path="#SELECT:"/>
		</flow:action>
		<flow:action name="OPEN_FORM_CALL_EDIT">
			<flow:open-form mode="CALL_EDIT" form-class="NucleusWF.Base.Definicion.Workflows.NODE.form" parent-doc-path="#SOURCE:" doc-path="#SELECT:"/>
		</flow:action>
		<flow:action name="OPEN_FORM_LABEL_ADD">
			<flow:open-form mode="LABEL_ADD" form-class="NucleusWF.Base.Definicion.Workflows.NODE.form" parent-doc-path="#SOURCE:" doc-path="#SELECT:"/>
		</flow:action>
		<flow:action name="OPEN_FORM_LABEL_EDIT">
			<flow:open-form mode="LABEL_EDIT" form-class="NucleusWF.Base.Definicion.Workflows.NODE.form" parent-doc-path="#SOURCE:" doc-path="#SELECT:"/>
		</flow:action>
		<flow:action name="OPEN_FORM_GOTO_ADD">
			<flow:open-form mode="GOTO_ADD" form-class="NucleusWF.Base.Definicion.Workflows.NODE.form" parent-doc-path="#SOURCE:" doc-path="#SELECT:"/>
		</flow:action>
		<flow:action name="OPEN_FORM_GOTO_EDIT">
			<flow:open-form mode="GOTO_EDIT" form-class="NucleusWF.Base.Definicion.Workflows.NODE.form" parent-doc-path="#SOURCE:" doc-path="#SELECT:"/>
		</flow:action>
		<flow:action name="OPEN_FORM_WAIT_TIME_ADD">
			<flow:open-form mode="WAIT_TIME_ADD" form-class="NucleusWF.Base.Definicion.Workflows.NODE.form" parent-doc-path="#SOURCE:" doc-path="#SELECT:"/>
		</flow:action>
		<flow:action name="OPEN_FORM_WAIT_TIME_EDIT">