<flow:flow xmlns:flow="nomad_engine.flow" extends="NucleusWF.Base.Definicion.Workflows.TEXT.MAIN.STD.autoflow" default_action="LIST" name="NucleusWF.Base.Definicion.Workflows.TEXT.MAIN.STD.flow">
	<flow:info label="NucleusWF.Base.Definicion.Workflows.TEXT.MAIN.STD.autoflow"/>
	<flow:main doc="SOURCE"/>
	<flow:form name="NucleusWF.Base.Definicion.Workflows.TEXT.MAIN.STD_REG.form:SHOW2" extends="NucleusWF.Base.Definicion.Workflows.TEXT.MAIN.STD_REG.form:SHOW" mode="SHOW" parent-doc="PARENT" doc="SOURCE" form-class="NucleusWF.Base.Definicion.Workflows.TEXT.MAIN.STD_REG.form"/>
	<flow:form name="NucleusWF.Base.Definicion.Workflows.TEXT.MAIN.STD_REG.form:EDIT2" extends="NucleusWF.Base.Definicion.Workflows.TEXT.MAIN.STD_REG.form:EDIT" mode="EDIT" parent-doc="PARENT" doc="SOURCE" form-class="NucleusWF.Base.Definicion.Workflows.TEXT.MAIN.STD_REG.form"/>
	<flow:form name="NucleusWF.Base.Definicion.Workflows.TEXT.MAIN.STD_REG.form:NEW2" extends="NucleusWF.Base.Definicion.Workflows.TEXT.MAIN.STD_REG.form:NEW" mode="NEW" parent-doc="PARENT" doc="SOURCE" form-class="NucleusWF.Base.Definicion.Workflows.TEXT.MAIN.STD_REG.form"/>
</flow:flow>
