<flow:flow xmlns:flow="nomad_engine.flow" xmlns:doc="nomad_engine.doc" extends="NucleusProject.Base.Project.Tareas.TAREA.TableroDeTareas.STD_REP.autoflow" default_action="FILTER" name="NucleusProject.Base.Project.Tareas.TAREA.TableroDeTareas">
	<flow:main doc="SOURCE">
		<flow:action name="EXECUTE">
			<flow:exec-method priority="6" out-attr-path="#BATCHDOC:@batch-id" class="Nomad.Base.Report.GeneralReport.REPORT" method="ExecReportHTML">
				<flow:param type="Nomad.NSystem.String" mode="in" name="ReportName" value="NucleusProject.Base.Project.PizarraScrumTarea.rpt"/>
				<flow:param doc-path="#SOURCE:" type="Nomad.NSystem.Proxy.NomadXML" mode="in" name="xmlParam"/>
			</flow:exec-method>
			<flow:open-form form-class="NucleusProject.Base.Project.Tareas.TAREA.ShowReport.form" parent-doc-path="#SOURCE:" mode="SHOW" doc-path="#BATCHDOC:"/>
		</flow:action>
	</flow:main>
	<flow:form name="NucleusProject.Base.Project.Tareas.TAREA.TableroDeTareas.STD_FIL.autoform:FILTER2" mode="FILTER" extends="NucleusProject.Base.Project.Tareas.TAREA.TableroDeTareas.STD_FIL.autoform:FILTER" parent-doc="PARENT" doc="SOURCE" form-class="NucleusProject.Base.Project.Tareas.TAREA.TableroDeTareas.STD_FIL.autoform">
		<flow:action name="ACCEPT">
			<flow:call-action action="Save-FILTER"/>
			<flow:log text-path="#SOURCE:" text="ACCEPT-LOG"/>
			<flow:exec-method priority="6" out-attr-path="#BATCHDOC:@batch-id" class="Nomad.Base.Report.GeneralReport.REPORT" method="ExecReportHTML">
				<flow:param type="Nomad.NSystem.String" mode="in" name="ReportName" value="NucleusProject.Base.Project.PizarraScrumTarea.rpt"/>
				<flow:param doc-path="#SOURCE:" type="Nomad.NSystem.Proxy.NomadXML" mode="in" name="xmlParam"/>
			</flow:exec-method>
			<doc:set-attribute to-attr-path="#BATCHDOC:@title" from-value="Pizarra Scrum de Tareas"/>
			<flow:open-form form-class="NucleusProject.Base.Project.Tareas.TAREA.ShowReport.form" parent-doc-path="#SOURCE:" mode="SHOW" doc-path="#BATCHDOC:"/>
		</flow:action>
		<flow:action name="Save-FILTER">
			<flow:save-user-data doc-path="#DATA:" name="NucleusProject.Base.Project.Tareas.TAREA.TableroDeTareas.STD_FIL.filter"/>
		</flow:action>
	</flow:form>
	<flow:form form-class="NucleusProject.Base.Project.Tareas.TAREA.ShowReport.form" name="NucleusProject.Base.Project.Tareas.TAREA.ShowReport.form:SHOW" mode="SHOW" doc="SOURCE">
		<flow:action name="BACK">
			<flow:close-form/>
		</flow:action>
	</flow:form>
	<flow:declare>
		<doc:define name="DATA">
			<PARAMS oi_proyecto=""/>
		</doc:define>
	</flow:declare>
</flow:flow>
