<flow:flow xmlns:flow="nomad_engine.flow" xmlns:doc="nomad_engine.doc" default_action="HELP" name="NucleusProject.Base.Project.Tareas.TAREAS.guia">
	<flow:declare>
		<doc:define name="PARAMIN"/>
	</flow:declare>
	<flow:info label="Flow guia para NucleusProject.Base.Project.Recursos.RECURSO"/>
	<flow:main doc="SOURCE">
		<flow:action name="HELP">
			<doc:assign-value from-path="#SOURCE:" to-doc="PARAMIN"/>
			<flow:open-form parent-doc-path="#SOURCE:" doc-path="#SOURCE:" mode="SHOW" form-class="NucleusProject.Base.Project.Tareas.TAREA.guia.form"/>
		</flow:action>
		<flow:action name="proy">
			<doc:assign-value from-path="#SOURCE:" to-doc="PARAMIN"/>
			<flow:open-form parent-doc-path="#SOURCE:" doc-path="#SOURCE:" mode="PROY" form-class="NucleusProject.Base.Project.Tareas.TAREA.guia.form"/>
		</flow:action>
		<flow:action name="trabajo">
			<doc:assign-value from-path="#SOURCE:" to-doc="PARAMIN"/>
			<flow:open-form parent-doc-path="#SOURCE:" doc-path="#SOURCE:" mode="SHOW" form-class="NucleusProject.Base.Project.Tareas.TAREA.guia.form"/>
		</flow:action>
	</flow:main>
	<flow:form parent-doc="INDOC" doc="SOURCE" mode="SHOW" name="NucleusProject.Base.Project.Tareas.TAREA.guia.form:SHOW" form-class="NucleusProject.Base.Project.Tareas.TAREA.guia.form">
		<flow:action name="CANCEL">
			<flow:exit-flow return-path="#PARAMIN:"/>
		</flow:action>
		<flow:action name="ACCEPT">
			<flow:exit-flow return-path="#SOURCE:"/>
		</flow:action>
	</flow:form>
	<flow:form parent-doc="INDOC" mode="PROY" form-class="NucleusProject.Base.Project.Tareas.TAREA.guia.form" name="NucleusProject.Base.Project.Tareas.TAREA.guia.form:PROY" doc="SOURCE">
		<flow:action name="CANCEL">
			<flow:exit-flow return-path="#PARAMIN:"/>
		</flow:action>
		<flow:action name="ACCEPT">
			<flow:exit-flow return-path="#SOURCE:"/>
		</flow:action>
	</flow:form>
</flow:flow>
