<flow:flow xmlns:flow="nomad_engine.flow" xmlns:doc="nomad_engine.doc" extends="NucleusRH.Base.Organizacion.Empresas.CHECK.flow" default_action="OPEN-GUIA" name="NucleusRH.Base.Organizacion.Grupos_Centros_Costo.GRUPO_CCOSTO.check.flow">
	<flow:info label="Flow guia para NucleusRH.Base.Organizacion.Grupos_Centros_Costo.GRUPO_CCOSTO.check"/>
	<flow:main doc="SOURCE">
		<flow:action name="OPEN-GUIA">
			<doc:set-attribute from-attr-path="#SOURCE:@empresa" to-attr-path="#DATA:@empresa"/>
			<flow:open-form doc-path="#DATA:" form-class="NucleusRH.Base.Organizacion.Grupos_Centros_Costo.GRUPO_CCOSTO.check.form" mode="SHOW"/>
		</flow:action>
	</flow:main>
	<flow:form extends="NucleusRH.Base.Organizacion.Empresas.CHECK.form:SHOW" doc="SOURCE" mode="SHOW" name="NucleusRH.Base.Organizacion.Grupos_Centros_Costo.GRUPO_CCOSTO.check.form:SHOW" form-class="NucleusRH.Base.Organizacion.Grupos_Centros_Costo.GRUPO_CCOSTO.check.form"/>
</flow:flow>
