<flow:flow xmlns:flow="nomad_engine.flow" xmlns:doc="nomad_engine.doc" xmlns:qry="nomad_engine.qry" extends="Nomad.base.HTML_XLS.flow" default_action="initialize" name="NucleusRH.Base.Evaluacion.ResultadoEvaluacion.flow">
	<flow:info label="NucleusRH.Base.Evaluacion.ResultadoEvaluacion"/>
	<flow:declare>
		<doc:define name="DDO"/>
		<doc:define name="NEWDDO"/>
		<doc:define name="QRY"/>
		<doc:define name="USER"/>
		<doc:define name="PARAM">
			<DATOS show_img="0"/>
		</doc:define>
		<doc:define name="REPORT"/>
		<doc:define name="FILTERDATA"/>
		<doc:define name="IMAGES"/>
		<qry:define declare="&lt;DATOS show_img=&quot;0&quot; oi_evento=&quot;15&quot; soi_evaluador=&quot;11442&quot; /&gt;" name="qry_datos_reporte_ResultadoEvaluacion">
			<qry:main doc="SOURCE">
				<qry:element name="DATOS">
					<qry:insert-select name="qry_evaluacion" doc-path="#SOURCE:DATOS"/>
				</qry:element>
			</qry:main>
			<qry:select doc="PARAM" name="qry_evaluacion">
				<qry:xquery>
					for $r in sql('
				SELECT 
					EVA02_EVALUACION.oi_evaluacion, 
					EVA02_EVALUACION.oi_personal_emp, 
					EVA02_EVALUACION.oi_evento, 
					EVA02_EVALUACION.oi_evaluador, 
					EVA02_EVALUACION.oi_pos_evaluado, 
					EVA02_EVALUACION.oi_pos_evaluador, 
					EVA02_EVALUACION.oi_supervisor, 
					EVA02_EVALUACION.oi_pos_supervisor, 
					EVA02_EVALUACION.c_tipo_evaluacion, 
					EVA02_EVALUACION.c_estado, 
					EVA02_EVALUACION.f_evaluacion, 
					EVA02_EVALUACION.o_evaluado, 
					EVA02_EVALUACION.o_evaluador, 
					EVA02_EVALUACION.c_resultado, 
					EVA02_EVALUACION.l_aprobado, 
					EVA02_EVALUACION.c_res_comp, 
					EVA02_EVALUACION.l_aprobado_comp, 
					EVA02_EVALUACION.c_res_objetivos, 
					EVA02_EVALUACION.l_aprobado_obj,
					EVA01_EVENTOS.d_evento,
					EVA01_EVENTOS.n_pond_comp,
					EVA01_EVENTOS.n_pond_obj
				FROM EVA02_EVALUACION, EVA01_EVENTOS
				JOIN 
				EVA01_EVENTOS.oi_evento INNER EVA02_EVALUACION.oi_evento
				WHERE 
				EVA02_EVALUACION.oi_evento = {#PARAM:@oi_evento}
				{%? (#PARAM:@mis_evaluados='1')	{% AND EVA02_EVALUACION.oi_evaluador = {#PARAM:@oi_personal_emp_user} %} 
      		{% 
      			{%? (#PARAM:@oi_evaluador!='')	{% AND EVA02_EVALUACION.oi_evaluador = {#PARAM:@oi_evaluador} %} {% %} %}
      		%} %}
			')/ROWS/ROW
				</qry:xquery>
				<qry:out>
					<qry:element name="EVALUACION">
						<qry:attribute name="oi_evaluacion" value="$r/@oi_evaluacion" type="Nomad.NSystem.Int"/>
						<qry:attribute name="oi_personal_emp" value="$r/@oi_personal_emp" type="Nomad.NSystem.Int"/>
						<qry:attribute name="oi_evento" value="$r/@oi_evento" type="Nomad.NSystem.Int"/>
						<qry:attribute name="oi_evaluador" value="$r/@oi_evaluador" type="Nomad.NSystem.Int"/>
						<qry:attribute name="oi_pos_evaluado" value="$r/@oi_pos_evaluado" type="Nomad.NSystem.Int"/>
						<qry:attribute name="oi_pos_evaluador" value="$r/@oi_pos_evaluador" type="Nomad.NSystem.Int"/>
						<qry:attribute name="oi_supervisor" value="$r/@oi_supervisor" type="Nomad.NSystem.Int"/>
						<qry:attribute name="oi_pos_supervisor" value="$r/@oi_pos_supervisor" type="Nomad.NSystem.Int"/>
						<qry:attribute name="c_tipo_evaluacion" value="$r/@c_tipo_evaluacion" type="Nomad.NSystem.Int"/>
						<qry:attribute name="c_estado" value="$r/@c_estado" type="Nomad.NSystem.Int"/>
						<qry:attribute name="f_evaluacion" value="format_date($r/@f_evaluacion, 'dd/mm/yyyy')" type="Nomad.NSystem.Int"/>
						<qry:attribute name="o_evaluado" value="$r/@o_evaluado" type="Nomad.NSystem.Int"/>
						<qry:attribute name="o_evaluador" value="$r/@o_evaluador" type="Nomad.NSystem.Int"/>
						<qry:attribute name="c_resultado" value="$r/@c_resultado" type="Nomad.NSystem.Int"/>
						<qry:attribute name="l_aprobado" value="$r/@l_aprobado" type="Nomad.NSystem.Int"/>
						<qry:attribute name="c_res_comp" value="$r/@c_res_comp" type="Nomad.NSystem.Int"/>
						<qry:attribute name="l_aprobado_comp" value="$r/@l_aprobado_comp" type="Nomad.NSystem.Int"/>
						<qry:attribute name="c_res_objetivos" value="$r/@c_res_objetivos" type="Nomad.NSystem.Int"/>
						<qry:attribute name="l_aprobado_obj" value="$r/@l_aprobado_obj" type="Nomad.NSystem.Int"/>
						<qry:attribute name="d_evento" value="$r/@d_evento" type="Nomad.NSystem.Int"/>
						<qry:attribute name="n_pond_comp" value="$r/@n_pond_comp" type="Nomad.NSystem.Int"/>
						<qry:attribute name="n_pond_obj" value="$r/@n_pond_obj" type="Nomad.NSystem.Int"/>
						<qry:attribute name="show_img" value="#PARAM:@show_img" type="Nomad.NSystem.Int"/>
						<qry:insert-select name="SECURITY" doc-path="."/>
						<qry:insert-select name="qry_datos_legajo_evaluado" doc-path="."/>
						<qry:insert-select name="qry_datos_legajo_evaluador" doc-path="."/>
						<qry:element name="COMPETENCIAS">
							<qry:insert-select name="qry_competencias" doc-path=".."/>
						</qry:element>
						<qry:element name="OBJETIVOS">
							<qry:insert-select name="qry_objetivos" doc-path=".."/>
						</qry:element>
						<qry:element name="OBJPROPS">
							<qry:insert-select name="qry_objpropuestos" doc-path=".."/>
						</qry:element>
					</qry:element>
				</qry:out>
			</qry:select>
			<qry:select doc="PARAM" name="qry_competencias">
				<qry:xquery>
					for $r in sql('
				SELECT
					EVA02_COM_EVALU.c_nivel_resultado,
					EVA02_COM_EVALU.oi_com_evalu,
					ORG21_COMPETENCIAS.oi_competencia,
					ORG21_COMPETENCIAS.c_competencia,
					ORG21_COMPETENCIAS.d_competencia,
					ORG21_COMPETENCIAS.o_competencia
				FROM EVA02_COM_EVALU, ORG21_COMPETENCIAS
				JOIN EVA02_COM_EVALU.oi_competencia INNER ORG21_COMPETENCIAS.oi_competencia
				WHERE EVA02_COM_EVALU.oi_evaluacion = {#PARAM:@oi_evaluacion}			
			')/ROWS/ROW
				</qry:xquery>
				<qry:out>
					<qry:element name="COMPETENCIA">
						<qry:attribute name="c_nivel_resultado" value="$r/@c_nivel_resultado" type="Nomad.NSystem.Int"/>
						<qry:attribute name="oi_com_evalu" value="$r/@oi_com_evalu" type="Nomad.NSystem.Int"/>
						<qry:attribute name="oi_competencia" value="$r/@oi_competencia" type="Nomad.NSystem.Int"/>
						<qry:attribute name="c_competencia" value="$r/@c_competencia" type="Nomad.NSystem.Int"/>
						<qry:attribute name="d_competencia" value="$r/@d_competencia" type="Nomad.NSystem.Int"/>
						<qry:attribute name="o_competencia" value="$r/@o_competencia" type="Nomad.NSystem.Int"/>
						<qry:element name="APTITUDES">
							<qry:insert-select name="qry_aptitudes" doc-path="$r"/>
						</qry:element>
					</qry:element>
				</qry:out>
			</qry:select>
			<qry:select doc="PARAM" name="qry_aptitudes">
				<qry:xquery>
					for $r in sql('
					SELECT
						EVA02_APT_COM.oi_val_escala,
						ORG28_APTITUDES.c_aptitud,
						ORG28_APTITUDES.d_aptitud,
						ORG28_APTITUDES.oi_escala,
						ORG28_APTITUDES.o_aptitud,
						ORG29_VAL_ESCALAS.c_valor,
						ORG29_VAL_ESCALAS.d_valor,
						ORG29_VAL_ESCALAS.l_aprueba
					FROM EVA02_APT_COM, ORG28_APTITUDES, ORG29_VAL_ESCALAS, ORG21_APTIT_COMP
					JOIN 
					EVA02_APT_COM.oi_aptit_comp INNER ORG21_APTIT_COMP.oi_aptit_comp,
					ORG21_APTIT_COMP.oi_aptitud INNER ORG28_APTITUDES.oi_aptitud,
					EVA02_APT_COM.oi_val_escala LEFT OUTER ORG29_VAL_ESCALAS.oi_val_escala
					WHERE EVA02_APT_COM.oi_com_evalu = {#PARAM:@oi_com_evalu}					
			')/ROWS/ROW
				</qry:xquery>
				<qry:out>
					<qry:element name="APTITUD">
						<qry:attribute name="c_aptitud" value="$r/@c_aptitud" type="Nomad.NSystem.Int"/>
						<qry:attribute name="d_aptitud" value="$r/@d_aptitud" type="Nomad.NSystem.Int"/>
						<qry:attribute name="oi_val_escala" value="$r/@oi_val_escala" type="Nomad.NSystem.Int"/>
						<qry:attribute name="c_valor" value="$r/@c_valor" type="Nomad.NSystem.Int"/>
						<qry:attribute name="d_valor" value="$r/@d_valor" type="Nomad.NSystem.Int"/>
					</qry:element>
				</qry:out>
			</qry:select>
			<qry:select doc="PARAM" name="qry_objetivos">
				<qry:xquery>
					for $r in sql('
				SELECT
					EVA02_OBJ_EVALU.oi_obj_evalu,
					EVA02_OBJ_EVALU.c_objetivo,
					EVA02_OBJ_EVALU.d_objetivo,
					EVA02_OBJ_EVALU.c_nivel_resultado
				FROM EVA02_OBJ_EVALU
				WHERE EVA02_OBJ_EVALU.oi_evaluacion = {#PARAM:@oi_evaluacion}			
			')/ROWS/ROW
				</qry:xquery>
				<qry:out>
					<qry:element name="OBJETIVO">
						<qry:attribute name="oi_obj_evalu" value="$r/@oi_obj_evalu" type="Nomad.NSystem.Int"/>
						<qry:attribute name="c_objetivo" value="$r/@c_objetivo" type="Nomad.NSystem.Int"/>
						<qry:attribute name="d_objetivo" value="$r/@d_objetivo" type="Nomad.NSystem.Int"/>
						<qry:attribute name="c_nivel_resultado" value="$r/@c_nivel_resultado" type="Nomad.NSystem.Int"/>
						<qry:element name="SUBOBJETIVOS">
							<qry:insert-select name="qry_subobjetivos" doc-path="$r"/>
						</qry:element>
					</qry:element>
				</qry:out>
			</qry:select>
			<qry:select doc="PARAM" name="qry_subobjetivos">
				<qry:xquery>
					for $r in sql('
					SELECT
						EVA02_SUBOBJETIVOS.c_subobjetivo,
						EVA02_SUBOBJETIVOS.d_subobjetivo,
						EVA02_SUBOBJETIVOS.n_cumplimiento
					FROM EVA02_SUBOBJETIVOS
					WHERE EVA02_SUBOBJETIVOS.oi_obj_evalu = {#PARAM:@oi_obj_evalu}
			')/ROWS/ROW
				</qry:xquery>
				<qry:out>
					<qry:element name="SUBOBJETIVO">
						<qry:attribute name="c_subobjetivo" value="$r/@c_subobjetivo" type="Nomad.NSystem.Int"/>
						<qry:attribute name="d_subobjetivo" value="$r/@d_subobjetivo" type="Nomad.NSystem.Int"/>
						<qry:attribute name="n_cumplimiento" value="$r/@n_cumplimiento" type="Nomad.NSystem.Int"/>
					</qry:element>
				</qry:out>
			</qry:select>
			<qry:select doc="PARAM" name="qry_objpropuestos">
				<qry:xquery>
					for $r in sql('
				SELECT
					EVA02_OBJ_PROP.d_obj_prop
				FROM EVA02_OBJ_PROP
				WHERE EVA02_OBJ_PROP.oi_evaluacion = {#PARAM:@oi_evaluacion}
			')/ROWS/ROW
				</qry:xquery>
				<qry:out>
					<qry:element name="OBJPROP">
						<qry:attribute name="d_obj_prop" value="$r/@d_obj_prop"/>
					</qry:element>
				</qry:out>
			</qry:select>
			<qry:select doc="PARAM" name="qry_datos_legajo_evaluado">
				<qry:xquery>
					for $r in sql('
				SELECT
					PER01_PERSONAL.d_ape_y_nom,
					PER01_PERSONAL.oi_foto,
					PER02_PERSONAL_EMP.e_numero_legajo,
					ORG04_POSICIONES.d_posicion
				FROM PER01_PERSONAL, PER02_PERSONAL_EMP, ORG04_POSICIONES
				JOIN				
				PER02_PERSONAL_EMP.oi_personal INNER PER01_PERSONAL.oi_personal,
				PER02_PERSONAL_EMP.oi_posicion_ult LEFT OUTER ORG04_POSICIONES.oi_posicion
				WHERE 
				PER02_PERSONAL_EMP.oi_personal_emp = {#PARAM:@oi_personal_emp}
				
			')/ROWS/ROW
				</qry:xquery>
				<qry:out>
					<qry:attribute name="d_ape_y_nom" value="$r/@d_ape_y_nom" type="Nomad.NSystem.Int"/>
					<qry:attribute name="e_numero_legajo" value="$r/@e_numero_legajo" type="Nomad.NSystem.Int"/>
					<qry:attribute name="evaluado" value="$r/@e_numero_legajo + ' - ' + $r/@d_ape_y_nom" type="Nomad.NSystem.Int"/>
					<qry:attribute name="d_posicion" value="$r/@d_posicion" type="Nomad.NSystem.Int"/>
					<qry:attribute name="oi_foto" value="$r/@oi_foto" type="Nomad.NSystem.Int"/>
				</qry:out>
			</qry:select>
			<qry:select name="qry_datos_legajo_evaluador" doc="PARAM">
				<qry:xquery>
					for $r in sql('
				SELECT
					PER01_PERSONAL.d_ape_y_nom,
					PER02_PERSONAL_EMP.e_numero_legajo,
					ORG04_POSICIONES.d_posicion
				FROM PER01_PERSONAL, PER02_PERSONAL_EMP, ORG04_POSICIONES
				JOIN 
				PER01_PERSONAL.oi_personal INNER PER02_PERSONAL_EMP.oi_personal,
				PER02_PERSONAL_EMP.oi_posicion_ult LEFT OUTER ORG04_POSICIONES.oi_posicion
				WHERE
				PER02_PERSONAL_EMP.oi_personal_emp = {#PARAM:@oi_evaluador}
			')/ROWS/ROW
				</qry:xquery>
				<qry:out>
					<qry:attribute name="d_ape_y_nom_evaluador" value="$r/@d_ape_y_nom" type="Nomad.NSystem.Int"/>
					<qry:attribute name="e_numero_legajo_evaluador" value="$r/@e_numero_legajo" type="Nomad.NSystem.Int"/>
					<qry:attribute name="evaluador" value="$r/@e_numero_legajo + ' - ' + $r/@d_ape_y_nom" type="Nomad.NSystem.Int"/>
					<qry:attribute name="d_posicion_evaluador" value="$r/@d_posicion" type="Nomad.NSystem.Int"/>
				</qry:out>
			</qry:select>
			<qry:select doc="PARAM" name="SECURITY">
				<qry:xquery>
					for $r in sql('
				SELECT NMD_SECURITY.policy 
				FROM NMD_SECURITY 
				WHERE NMD_SECURITY.class=\'NucleusRH.Base.Personal.LegajoEmpresa.PERSONAL_EMP\' 
				AND NMD_SECURITY.id = {#PARAM:@oi_personal_emp}')/ROWS/ROW
				</qry:xquery>
				<qry:out>
					<qry:attribute value="$r/@policy" name="policy"/>
				</qry:out>
			</qry:select>
		</qry:define>
		<qry:define declare="&lt;DATOS oi_evento=&quot;11&quot; user=&quot;iezcaray&quot; mis_evaluados=&quot;1&quot;/&gt;" name="GET_USER">
			<qry:main doc="SOURCE">
				<qry:append-doc doc-path="#SOURCE:DATOS" name="PARAMIN"/>
				<qry:element name="ROW">
					<qry:insert-select doc-path="#SOURCE:DATOS[@mis_evaluados='1']" name="account-name"/>
				</qry:element>
			</qry:main>
			<qry:select name="account-name" doc="SOURCE">
				<qry:xquery>
					for $r in path('Nomad\\Base\\Login\\Cuentas')/CUENTA
				</qry:xquery>
				<qry:out>
					<qry:insert-select name="sql2" doc-path="$r"/>
				</qry:out>
			</qry:select>
			<qry:select name="sql2" doc="PARAM">
				<qry:xquery>
					for $r in file('Nomad\\Base\\Login\\Cuentas\\{%= #PARAM:@FILE %}')/CUENTA[@LOGIN=#PARAMIN:@user]/ENTIDAD
				</qry:xquery>
				<qry:out>
					<qry:insert-select name="sql4" doc-path="$r"/>
				</qry:out>
			</qry:select>
			<qry:select name="sql4" doc="PARAM">
				<qry:xquery>
					for $r in sql('
			SELECT PER02_PERSONAL_EMP.oi_personal_emp
			FROM PER01_PERSONAL, PER02_PERSONAL_EMP, EVA01_EVENTOS
			JOIN PER01_PERSONAL.oi_personal INNER PER02_PERSONAL_EMP.oi_personal,
			PER02_PERSONAL_EMP.oi_empresa INNER EVA01_EVENTOS.oi_empresa
			WHERE
			EVA01_EVENTOS.oi_evento = {#PARAMIN:@oi_evento}
			AND PER01_PERSONAL.oi_usuario_sistema = {#PARAM:@value}
			')/ROWS/ROW
				</qry:xquery>
				<qry:out>
					<qry:attribute value="$r/@oi_personal_emp" name="oi_personal_emp"/>
				</qry:out>
			</qry:select>
		</qry:define>
		<qry:define declare="&lt;DATOS&gt;&#13;&#10;&#9;&lt;EVALUACION d_posicion_evaluador=&quot;GERENTE PROYECTOS&quot; evaluador=&quot;533 - AILAN, PABLO MARCELO&quot; e_numero_legajo_evaluador=&quot;533&quot; d_ape_y_nom_evaluador=&quot;AILAN, PABLO MARCELO&quot; oi_foto=&quot;176&quot; d_posicion=&quot;ANALISIS Y DESARROLLO&quot; evaluado=&quot;622 - GARZON, ESTEBAN GABRIEL&quot; e_numero_legajo=&quot;622&quot; d_ape_y_nom=&quot;GARZON, ESTEBAN GABRIEL&quot; show_img=&quot;0&quot; n_pond_obj=&quot;20&quot; n_pond_comp=&quot;80&quot; d_evento=&quot;2008&quot; l_aprobado_obj=&quot;0&quot; c_res_objetivos=&quot;No Satisfactorio&quot; l_aprobado_comp=&quot;1&quot; c_res_comp=&quot;Muy Bueno&quot; l_aprobado=&quot;1&quot; c_resultado=&quot;Bueno&quot; c_estado=&quot;CE&quot; c_tipo_evaluacion=&quot;0&quot; oi_pos_supervisor=&quot;19&quot; oi_supervisor=&quot;11442&quot; oi_pos_evaluador=&quot;20&quot; oi_pos_evaluado=&quot;24&quot; oi_evaluador=&quot;11437&quot; oi_evento=&quot;8&quot; oi_personal_emp=&quot;11436&quot; oi_evaluacion=&quot;32&quot;&gt;&#13;&#10;&#9;&#9;&lt;COMPETENCIAS&gt;&#13;&#10;&#9;&#9;&#9;&lt;COMPETENCIA o_competencia=&quot;Habilidad para integrarse a un equipo y ser parte del mismo valorando y fortaleciendo las relaciones interpersonales y contribuyendo al logro de los objetivos en conjunto&quot; d_competencia=&quot;TRABAJO EN EQUIPO Y COOPERACION&quot; c_competencia=&quot;TREQU&quot; oi_competencia=&quot;8&quot; oi_com_evalu=&quot;43&quot; c_nivel_resultado=&quot;Bueno&quot;&gt;&#13;&#10;&#9;&#9;&#9;&#9;&lt;APTITUDES&gt;&#13;&#10;&#9;&#9;&#9;&#9;&#9;&lt;APTITUD d_valor=&quot;Algunas Veces&quot; c_valor=&quot;3&quot; oi_val_escala=&quot;73&quot; d_aptitud=&quot;1-Se adapta a distintos equipos&quot; c_aptitud=&quot;50025162&quot;/&gt;&#13;&#10;&#9;&#9;&#9;&#9;&#9;&lt;APTITUD d_valor=&quot;Casi siempre&quot; c_valor=&quot;4&quot; oi_val_escala=&quot;74&quot; d_aptitud=&quot;2-Escucha, respeta y valoriza contribuc.&quot; c_aptitud=&quot;50025163&quot;/&gt;&#13;&#10;&#9;&#9;&#9;&#9;&#9;&lt;APTITUD d_valor=&quot;Casi siempre&quot; c_valor=&quot;4&quot; oi_val_escala=&quot;74&quot; d_aptitud=&quot;3-Informa a los integrantes del equipo&quot; c_aptitud=&quot;50025164&quot;/&gt;&#13;&#10;&#9;&#9;&#9;&#9;&#9;&lt;APTITUD d_valor=&quot;Casi siempre&quot; c_valor=&quot;4&quot; oi_val_escala=&quot;74&quot; d_aptitud=&quot;4-Act&amp;#250;a en direcci&amp;#243;n resolver conflictos&quot; c_aptitud=&quot;50025165&quot;/&gt;&#13;&#10;&#9;&#9;&#9;&#9;&#9;&lt;APTITUD d_valor=&quot;Rara vez&quot; c_valor=&quot;2&quot; oi_val_escala=&quot;72&quot; d_aptitud=&quot;5-Prioriza el resultado del equipo&quot; c_aptitud=&quot;50025166&quot;/&gt;&#13;&#10;&#9;&#9;&#9;&#9;&lt;/APTITUDES&gt;&#13;&#10;&#9;&#9;&#9;&lt;/COMPETENCIA&gt;&#13;&#10;&#9;&#9;&#9;&lt;COMPETENCIA o_competencia=&quot;Capacidad para aplicar y compartir efectivamente los conocimientos adquiridos por el estudio, experiencia o pr&amp;#225;ctica.&quot; d_competencia=&quot;CONOCIMIENTOS TECNICOS&quot; c_competencia=&quot;COTEC&quot; oi_competencia=&quot;13&quot; oi_com_evalu=&quot;44&quot; c_nivel_resultado=&quot;Distinguido&quot;&gt;&#13;&#10;&#9;&#9;&#9;&#9;&lt;APTITUDES&gt;&#13;&#10;&#9;&#9;&#9;&#9;&#9;&lt;APTITUD d_valor=&quot;Sin Descripcion&quot; c_valor=&quot;2&quot; oi_val_escala=&quot;80&quot; d_aptitud=&quot;Adaptarse a diferentes equipos&quot; c_aptitud=&quot;50025740&quot;/&gt;&#13;&#10;&#9;&#9;&#9;&#9;&lt;/APTITUDES&gt;&#13;&#10;&#9;&#9;&#9;&lt;/COMPETENCIA&gt;&#13;&#10;&#9;&#9;&lt;/COMPETENCIAS&gt;&#13;&#10;&#9;&#9;&lt;OBJETIVOS/&gt;&#13;&#10;&#9;&lt;/EVALUACION&gt;&#13;&#10;&#9;&lt;EVALUACION d_posicion_evaluador=&quot;DIRECCION GENERAL&quot; evaluador=&quot;556 - MARRA, RICARDO ALFREDO&quot; e_numero_legajo_evaluador=&quot;556&quot; d_ape_y_nom_evaluador=&quot;MARRA, RICARDO ALFREDO&quot; oi_foto=&quot;211&quot; d_posicion=&quot;GERENTE PROYECTOS&quot; evaluado=&quot;533 - AILAN, PABLO MARCELO&quot; e_numero_legajo=&quot;533&quot; d_ape_y_nom=&quot;AILAN, PABLO MARCELO&quot; show_img=&quot;0&quot; n_pond_obj=&quot;20&quot; n_pond_comp=&quot;80&quot; d_evento=&quot;2008&quot; l_aprobado_obj=&quot;0&quot; l_aprobado_comp=&quot;0&quot; l_aprobado=&quot;0&quot; c_estado=&quot;AN&quot; c_tipo_evaluacion=&quot;0&quot; oi_pos_evaluador=&quot;19&quot; oi_pos_evaluado=&quot;20&quot; oi_evaluador=&quot;11442&quot; oi_evento=&quot;8&quot; oi_personal_emp=&quot;11437&quot; oi_evaluacion=&quot;33&quot;&gt;&#13;&#10;&#9;&#9;&lt;COMPETENCIAS&gt;&#13;&#10;&#9;&#9;&#9;&lt;COMPETENCIA o_competencia=&quot;Capacidad para orientar su gesti&amp;#243;n en acciones que contribuyan al logro de objetivos esperados dentro su &amp;#225;rea o rol.&quot; d_competencia=&quot;ORIENTACION A RESULTADOS&quot; c_competencia=&quot;ORRES&quot; oi_competencia=&quot;7&quot; oi_com_evalu=&quot;45&quot;&gt;&#13;&#10;&#9;&#9;&#9;&#9;&lt;APTITUDES&gt;&#13;&#10;&#9;&#9;&#9;&#9;&#9;&lt;APTITUD d_aptitud=&quot;4-Adec&amp;#250;a su estilo de comunicaci&amp;#243;n&quot; c_aptitud=&quot;50025155&quot;/&gt;&#13;&#10;&#9;&#9;&#9;&#9;&lt;/APTITUDES&gt;&#13;&#10;&#9;&#9;&#9;&lt;/COMPETENCIA&gt;&#13;&#10;&#9;&#9;&#9;&lt;COMPETENCIA o_competencia=&quot;Capacidad para conducir y motivar al equipo de trabajo hacia el logro de los resultados esperados.&quot; d_competencia=&quot;LIDERAZGO DE EQUIPOS&quot; c_competencia=&quot;LIEQU&quot; oi_competencia=&quot;10&quot; oi_com_evalu=&quot;46&quot;&gt;&#13;&#10;&#9;&#9;&#9;&#9;&lt;APTITUDES&gt;&#13;&#10;&#9;&#9;&#9;&#9;&#9;&lt;APTITUD d_aptitud=&quot;2-Capitaliza cr&amp;#237;ticas y sugerencias&quot; c_aptitud=&quot;50025158&quot;/&gt;&#13;&#10;&#9;&#9;&#9;&#9;&#9;&lt;APTITUD d_aptitud=&quot;5-Prioriza el resultado del equipo&quot; c_aptitud=&quot;50025166&quot;/&gt;&#13;&#10;&#9;&#9;&#9;&#9;&lt;/APTITUDES&gt;&#13;&#10;&#9;&#9;&#9;&lt;/COMPETENCIA&gt;&#13;&#10;&#9;&#9;&#9;&lt;COMPETENCIA o_competencia=&quot;Necesidad del personal que permite llevar a cabo cambios en las metas y proyectos para alcanzar un desempe&amp;#241;o de excelencia.&quot; d_competencia=&quot;ORIENTACION AL LOGRO&quot; c_competencia=&quot;ORLOG&quot; oi_competencia=&quot;17&quot; oi_com_evalu=&quot;47&quot;&gt;&#13;&#10;&#9;&#9;&#9;&#9;&lt;APTITUDES&gt;&#13;&#10;&#9;&#9;&#9;&#9;&#9;&lt;APTITUD d_aptitud=&quot;Planificar tareas considerando tiempos&quot; c_aptitud=&quot;50025730&quot;/&gt;&#13;&#10;&#9;&#9;&#9;&#9;&#9;&lt;APTITUD d_aptitud=&quot;3-Eval&amp;#250;a el impacto de sus acciones&quot; c_aptitud=&quot;50025154&quot;/&gt;&#13;&#10;&#9;&#9;&#9;&#9;&lt;/APTITUDES&gt;&#13;&#10;&#9;&#9;&#9;&lt;/COMPETENCIA&gt;&#13;&#10;&#9;&#9;&lt;/COMPETENCIAS&gt;&#13;&#10;&#9;&#9;&lt;OBJETIVOS/&gt;&#13;&#10;&#9;&lt;/EVALUACION&gt;&#13;&#10;&#9;&lt;EVALUACION d_posicion_evaluador=&quot;GERENTE PROYECTOS&quot; evaluador=&quot;533 - AILAN, PABLO MARCELO&quot; e_numero_legajo_evaluador=&quot;533&quot; d_ape_y_nom_evaluador=&quot;AILAN, PABLO MARCELO&quot; oi_foto=&quot;214&quot; d_posicion=&quot;ANALISIS Y DESARROLLO&quot; evaluado=&quot;667 - KABABE, AGUSTIN&quot; e_numero_legajo=&quot;667&quot; d_ape_y_nom=&quot;KABABE, AGUSTIN&quot; show_img=&quot;0&quot; n_pond_obj=&quot;20&quot; n_pond_comp=&quot;80&quot; d_evento=&quot;2008&quot; l_aprobado_obj=&quot;0&quot; c_res_objetivos=&quot;No Satisfactorio&quot; l_aprobado_comp=&quot;1&quot; c_res_comp=&quot;Distinguido&quot; l_aprobado=&quot;1&quot; c_resultado=&quot;Muy Bueno&quot; c_estado=&quot;CE&quot; c_tipo_evaluacion=&quot;0&quot; oi_pos_supervisor=&quot;19&quot; oi_supervisor=&quot;11442&quot; oi_pos_evaluador=&quot;20&quot; oi_pos_evaluado=&quot;24&quot; oi_evaluador=&quot;11437&quot; oi_evento=&quot;8&quot; oi_personal_emp=&quot;11440&quot; oi_evaluacion=&quot;35&quot;&gt;&#13;&#10;&#9;&#9;&lt;COMPETENCIAS&gt;&#13;&#10;&#9;&#9;&#9;&lt;COMPETENCIA o_competencia=&quot;Habilidad para integrarse a un equipo y ser parte del mismo valorando y fortaleciendo las relaciones interpersonales y contribuyendo al logro de los objetivos en conjunto&quot; d_competencia=&quot;TRABAJO EN EQUIPO Y COOPERACION&quot; c_competencia=&quot;TREQU&quot; oi_competencia=&quot;8&quot; oi_com_evalu=&quot;51&quot; c_nivel_resultado=&quot;Distinguido&quot;&gt;&#13;&#10;&#9;&#9;&#9;&#9;&lt;APTITUDES&gt;&#13;&#10;&#9;&#9;&#9;&#9;&#9;&lt;APTITUD d_valor=&quot;Siempre&quot; c_valor=&quot;5&quot; oi_val_escala=&quot;75&quot; d_aptitud=&quot;1-Se adapta a distintos equipos&quot; c_aptitud=&quot;50025162&quot;/&gt;&#13;&#10;&#9;&#9;&#9;&#9;&#9;&lt;APTITUD d_valor=&quot;Siempre&quot; c_valor=&quot;5&quot; oi_val_escala=&quot;75&quot; d_aptitud=&quot;2-Escucha, respeta y valoriza contribuc.&quot; c_aptitud=&quot;50025163&quot;/&gt;&#13;&#10;&#9;&#9;&#9;&#9;&#9;&lt;APTITUD d_valor=&quot;Siempre&quot; c_valor=&quot;5&quot; oi_val_escala=&quot;75&quot; d_aptitud=&quot;3-Informa a los integrantes del equipo&quot; c_aptitud=&quot;50025164&quot;/&gt;&#13;&#10;&#9;&#9;&#9;&#9;&#9;&lt;APTITUD d_valor=&quot;Siempre&quot; c_valor=&quot;5&quot; oi_val_escala=&quot;75&quot; d_aptitud=&quot;4-Act&amp;#250;a en direcci&amp;#243;n resolver conflictos&quot; c_aptitud=&quot;50025165&quot;/&gt;&#13;&#10;&#9;&#9;&#9;&#9;&#9;&lt;APTITUD d_valor=&quot;Siempre&quot; c_valor=&quot;5&quot; oi_val_escala=&quot;75&quot; d_aptitud=&quot;5-Prioriza el resultado del equipo&quot; c_aptitud=&quot;50025166&quot;/&gt;&#13;&#10;&#9;&#9;&#9;&#9;&lt;/APTITUDES&gt;&#13;&#10;&#9;&#9;&#9;&lt;/COMPETENCIA&gt;&#13;&#10;&#9;&#9;&#9;&lt;COMPETENCIA o_competencia=&quot;Capacidad para aplicar y compartir efectivamente los conocimientos adquiridos por el estudio, experiencia o pr&amp;#225;ctica.&quot; d_competencia=&quot;CONOCIMIENTOS TECNICOS&quot; c_competencia=&quot;COTEC&quot; oi_competencia=&quot;13&quot; oi_com_evalu=&quot;52&quot; c_nivel_resultado=&quot;Distinguido&quot;&gt;&#13;&#10;&#9;&#9;&#9;&#9;&lt;APTITUDES&gt;&#13;&#10;&#9;&#9;&#9;&#9;&#9;&lt;APTITUD d_valor=&quot;Sin Descripcion&quot; c_valor=&quot;5&quot; oi_val_escala=&quot;83&quot; d_aptitud=&quot;Adaptarse a diferentes equipos&quot; c_aptitud=&quot;50025740&quot;/&gt;&#13;&#10;&#9;&#9;&#9;&#9;&lt;/APTITUDES&gt;&#13;&#10;&#9;&#9;&#9;&lt;/COMPETENCIA&gt;&#13;&#10;&#9;&#9;&lt;/COMPETENCIAS&gt;&#13;&#10;&#9;&#9;&lt;OBJETIVOS/&gt;&#13;&#10;&#9;&lt;/EVALUACION&gt;&#13;&#10;&#9;&lt;EVALUACION d_posicion_evaluador=&quot;GERENTE PROYECTOS&quot; evaluador=&quot;533 - AILAN, PABLO MARCELO&quot; e_numero_legajo_evaluador=&quot;533&quot; d_ape_y_nom_evaluador=&quot;AILAN, PABLO MARCELO&quot; oi_foto=&quot;213&quot; d_posicion=&quot;ANALISIS Y DESARROLLO&quot; evaluado=&quot;604 - EZCARAY, IGNACIO FRANCISCO&quot; e_numero_legajo=&quot;604&quot; d_ape_y_nom=&quot;EZCARAY, IGNACIO FRANCISCO&quot; show_img=&quot;0&quot; n_pond_obj=&quot;20&quot; n_pond_comp=&quot;80&quot; d_evento=&quot;2008&quot; l_aprobado_obj=&quot;0&quot; c_res_objetivos=&quot;No Satisfactorio&quot; l_aprobado_comp=&quot;1&quot; c_res_comp=&quot;Distinguido&quot; l_aprobado=&quot;1&quot; c_resultado=&quot;Muy Bueno&quot; c_estado=&quot;CE&quot; c_tipo_evaluacion=&quot;0&quot; oi_pos_supervisor=&quot;19&quot; oi_supervisor=&quot;11442&quot; oi_pos_evaluador=&quot;20&quot; oi_pos_evaluado=&quot;24&quot; oi_evaluador=&quot;11437&quot; oi_evento=&quot;8&quot; oi_personal_emp=&quot;11441&quot; oi_evaluacion=&quot;36&quot;&gt;&#13;&#10;&#9;&#9;&lt;COMPETENCIAS&gt;&#13;&#10;&#9;&#9;&#9;&lt;COMPETENCIA o_competencia=&quot;Habilidad para integrarse a un equipo y ser parte del mismo valorando y fortaleciendo las relaciones interpersonales y contribuyendo al logro de los objetivos en conjunto&quot; d_competencia=&quot;TRABAJO EN EQUIPO Y COOPERACION&quot; c_competencia=&quot;TREQU&quot; oi_competencia=&quot;8&quot; oi_com_evalu=&quot;53&quot; c_nivel_resultado=&quot;Muy Bueno&quot;&gt;&#13;&#10;&#9;&#9;&#9;&#9;&lt;APTITUDES&gt;&#13;&#10;&#9;&#9;&#9;&#9;&#9;&lt;APTITUD d_valor=&quot;Casi siempre&quot; c_valor=&quot;4&quot; oi_val_escala=&quot;74&quot; d_aptitud=&quot;1-Se adapta a distintos equipos&quot; c_aptitud=&quot;50025162&quot;/&gt;&#13;&#10;&#9;&#9;&#9;&#9;&#9;&lt;APTITUD d_valor=&quot;Casi siempre&quot; c_valor=&quot;4&quot; oi_val_escala=&quot;74&quot; d_aptitud=&quot;2-Escucha, respeta y valoriza contribuc.&quot; c_aptitud=&quot;50025163&quot;/&gt;&#13;&#10;&#9;&#9;&#9;&#9;&#9;&lt;APTITUD d_valor=&quot;Algunas Veces&quot; c_valor=&quot;3&quot; oi_val_escala=&quot;73&quot; d_aptitud=&quot;3-Informa a los integrantes del equipo&quot; c_aptitud=&quot;50025164&quot;/&gt;&#13;&#10;&#9;&#9;&#9;&#9;&#9;&lt;APTITUD d_valor=&quot;Siempre&quot; c_valor=&quot;5&quot; oi_val_escala=&quot;75&quot; d_aptitud=&quot;4-Act&amp;#250;a en direcci&amp;#243;n resolver conflictos&quot; c_aptitud=&quot;50025165&quot;/&gt;&#13;&#10;&#9;&#9;&#9;&#9;&#9;&lt;APTITUD d_valor=&quot;Siempre&quot; c_valor=&quot;5&quot; oi_val_escala=&quot;75&quot; d_aptitud=&quot;5-Prioriza el resultado del equipo&quot; c_aptitud=&quot;50025166&quot;/&gt;&#13;&#10;&#9;&#9;&#9;&#9;&lt;/APTITUDES&gt;&#13;&#10;&#9;&#9;&#9;&lt;/COMPETENCIA&gt;&#13;&#10;&#9;&#9;&#9;&lt;COMPETENCIA o_competencia=&quot;Capacidad para aplicar y compartir efectivamente los conocimientos adquiridos por el estudio, experiencia o pr&amp;#225;ctica.&quot; d_competencia=&quot;CONOCIMIENTOS TECNICOS&quot; c_competencia=&quot;COTEC&quot; oi_competencia=&quot;13&quot; oi_com_evalu=&quot;54&quot; c_nivel_resultado=&quot;Distinguido&quot;&gt;&#13;&#10;&#9;&#9;&#9;&#9;&lt;APTITUDES&gt;&#13;&#10;&#9;&#9;&#9;&#9;&#9;&lt;APTITUD d_valor=&quot;Sin Descripcion&quot; c_valor=&quot;3&quot; oi_val_escala=&quot;81&quot; d_aptitud=&quot;Adaptarse a diferentes equipos&quot; c_aptitud=&quot;50025740&quot;/&gt;&#13;&#10;&#9;&#9;&#9;&#9;&lt;/APTITUDES&gt;&#13;&#10;&#9;&#9;&#9;&lt;/COMPETENCIA&gt;&#13;&#10;&#9;&#9;&lt;/COMPETENCIAS&gt;&#13;&#10;&#9;&#9;&lt;OBJETIVOS/&gt;&#13;&#10;&#9;&lt;/EVALUACION&gt;&#13;&#10;&#9;&lt;EVALUACION d_posicion_evaluador=&quot;DIRECCION GENERAL&quot; evaluador=&quot;556 - MARRA, RICARDO ALFREDO&quot; e_numero_legajo_evaluador=&quot;556&quot; d_ape_y_nom_evaluador=&quot;MARRA, RICARDO ALFREDO&quot; oi_foto=&quot;212&quot; d_posicion=&quot;GERENTE SOPORTE A CLIENTES&quot; evaluado=&quot;555 - MENEGHETTI, FERNANDA ANDREA&quot; e_numero_legajo=&quot;555&quot; d_ape_y_nom=&quot;MENEGHETTI, FERNANDA ANDREA&quot; show_img=&quot;0&quot; n_pond_obj=&quot;20&quot; n_pond_comp=&quot;80&quot; d_evento=&quot;2008&quot; l_aprobado_obj=&quot;0&quot; l_aprobado_comp=&quot;0&quot; l_aprobado=&quot;0&quot; c_estado=&quot;AN&quot; c_tipo_evaluacion=&quot;0&quot; oi_pos_evaluador=&quot;19&quot; oi_pos_evaluado=&quot;25&quot; oi_evaluador=&quot;11442&quot; oi_evento=&quot;8&quot; oi_personal_emp=&quot;11443&quot; oi_evaluacion=&quot;37&quot;&gt;&#13;&#10;&#9;&#9;&lt;COMPETENCIAS&gt;&#13;&#10;&#9;&#9;&#9;&lt;COMPETENCIA o_competencia=&quot;Capacidad para orientar su gesti&amp;#243;n en acciones que contribuyan al logro de objetivos esperados dentro su &amp;#225;rea o rol.&quot; d_competencia=&quot;ORIENTACION A RESULTADOS&quot; c_competencia=&quot;ORRES&quot; oi_competencia=&quot;7&quot; oi_com_evalu=&quot;55&quot;&gt;&#13;&#10;&#9;&#9;&#9;&#9;&lt;APTITUDES&gt;&#13;&#10;&#9;&#9;&#9;&#9;&#9;&lt;APTITUD d_aptitud=&quot;4-Adec&amp;#250;a su estilo de comunicaci&amp;#243;n&quot; c_aptitud=&quot;50025155&quot;/&gt;&#13;&#10;&#9;&#9;&#9;&#9;&lt;/APTITUDES&gt;&#13;&#10;&#9;&#9;&#9;&lt;/COMPETENCIA&gt;&#13;&#10;&#9;&#9;&#9;&lt;COMPETENCIA o_competencia=&quot;Capacidad para conducir y motivar al equipo de trabajo hacia el logro de los resultados esperados.&quot; d_competencia=&quot;LIDERAZGO DE EQUIPOS&quot; c_competencia=&quot;LIEQU&quot; oi_competencia=&quot;10&quot; oi_com_evalu=&quot;56&quot;&gt;&#13;&#10;&#9;&#9;&#9;&#9;&lt;APTITUDES&gt;&#13;&#10;&#9;&#9;&#9;&#9;&#9;&lt;APTITUD d_aptitud=&quot;2-Capitaliza cr&amp;#237;ticas y sugerencias&quot; c_aptitud=&quot;50025158&quot;/&gt;&#13;&#10;&#9;&#9;&#9;&#9;&#9;&lt;APTITUD d_aptitud=&quot;5-Prioriza el resultado del equipo&quot; c_aptitud=&quot;50025166&quot;/&gt;&#13;&#10;&#9;&#9;&#9;&#9;&lt;/APTITUDES&gt;&#13;&#10;&#9;&#9;&#9;&lt;/COMPETENCIA&gt;&#13;&#10