<flow:flow xmlns:flow="nomad_engine.flow" xmlns:qry="nomad_engine.qry" default_action="SHOW" extends="NucleusProject.Base.Project.Recursos.RECURSO.guia.autoflow" name="NucleusProject.Base.Project.Recursos.RECURSO.guia">
	<flow:info label="Flow guia para NucleusProject.Base.Project.Recursos.RECURSO"/>
	<flow:main doc="SOURCE">
		<flow:action name="OPEN-GUIA">
			<flow:open-form form-class="NucleusProject.Base.Project.Recursos.RECURSO.guia.autoform" parent-doc-path="#SOURCE:" doc-path="#SOURCE:" mode="SHOW"/>
		</flow:action>
	</flow:main>
	<flow:declare>
		<qry:define declare="&lt;helper-mess ID=&quot;11&quot; oi_proyecto=&quot;5&quot; oi_perfil=&quot;1&quot;/&gt;" name="X2C">
			<qry:main doc="SOURCE">
				<qry:element name="ROW">
					<qry:insert-select doc-path="#SOURCE:" name="RS1"/>
				</qry:element>
			</qry:main>
			<qry:select doc="SOURCE" name="RS1">
				<qry:xquery>
					for $r in sql('
			SELECT t.oi_recurso as ID, t.c_recurso as CODE,
			PRY01_PROYS_REC.oi_proy_rec as VALUE, 
			PER01_PERSONAL.d_ape_y_nom as TEXT, SEC.policy  
			
			FROM PRY05_RECURSOS as t, PRY01_PROYS_REC,
			PRY01_PROYS_REQ,						
			NMD_SECURITY(class=\'NucleusProject.Base.Project.Recursos.RECURSO\') as SEC, 
			PER01_PERSONAL  
			  
			JOIN
			t.oi_recurso LEFT OUTER SEC.id , 
			pry01_proys_rec.oi_proy_req INNER pry01_proys_req.oi_proy_req,
			pry01_proys_rec.oi_recurso INNER t.oi_recurso,
			t.oi_personal LEFT OUTER PER01_PERSONAL.oi_personal
			
			WHERE PRY01_PROYS_REC.oi_proy_rec={#SOURCE:helper-mess/@ID}
						
			ORDER BY CODE asc')/ROWS/ROW
				</qry:xquery>
				<qry:out>
					<qry:attribute value="$r/@VALUE" name="id"/>
					<qry:attribute value="$r/@VALUE" name="value"/>
					<qry:attribute value="$r/@CODE" name="code"/>
					<qry:attribute value="$r/@TEXT" name="text"/>
				</qry:out>
			</qry:select>
		</qry:define>
		<qry:define declare="&lt;helper-mess CODE=&quot;agustin&quot; oi_proyecto=&quot;5&quot; oi_perfil=&quot;1&quot;/&gt;" name="C2X">
			<qry:main doc="SOURCE">
				<qry:append-doc doc-path="#SOURCE:helper-mess" name="INDOC"/>
				<qry:element name="ROW">
					<qry:insert-select doc-path="#SOURCE:" name="RS1"/>
				</qry:element>
			</qry:main>
			<qry:select doc="SOURCE" name="RS1">
				<qry:xquery>
					for $r in sql('
			SELECT 
				t.oi_recurso as ID, 
				t.c_recurso as CODE, 
				PRY01_PROYS_REC.oi_proy_rec as VALUE,
				PER01_PERSONAL.d_ape_y_nom as TEXT, 
				SEC.policy  
			FROM 
				PRY05_RECURSOS as t, 
				PRY01_PROYS_REC,
				PRY01_PROYS_REQ, 
				NMD_SECURITY(class=\'NucleusProject.Base.Project.Recursos.RECURSO\') as SEC, 
				PER01_PERSONAL 
			JOIN 
				t.oi_recurso LEFT OUTER SEC.id , 
				pry01_proys_rec.oi_proy_req INNER pry01_proys_req.oi_proy_req,
				pry01_proys_rec.oi_recurso INNER t.oi_recurso, 
				t.oi_personal LEFT OUTER PER01_PERSONAL.oi_personal
			WHERE 
				t.c_recurso={substring_before(#INDOC:@CODE,\'-\')}  
				AND PRY01_PROYS_REQ.oi_proyecto={#SOURCE:helper-mess/@oi_proyecto}
				AND PRY01_PROYS_REQ.oi_perfil={#SOURCE:helper-mess/@oi_perfil}
						
			ORDER BY CODE asc')/ROWS/ROW
				</qry:xquery>
				<qry:out>
					<qry:attribute value="$r/@policy" name="policy"/>
					<qry:attribute value="''" name="SUB_SEARCH"/>
					<qry:attribute value="''" name="PARENTID"/>
					<qry:attribute value="$r/@VALUE" name="id"/>
					<qry:attribute value="$r/@VALUE" name="value"/>
					<qry:attribute value="$r/@CODE" name="code"/>
					<qry:attribute value="$r/@TEXT" name="text"/>
				</qry:out>
			</qry:select>
		</qry:define>
		<qry:define declare="&lt;helper-mess oi_proyecto=&quot;5&quot; oi_perfil=&quot;1&quot; /&gt;" name="HELP">
			<qry:main doc="SOURCE">
				<qry:element name="ROWS">
					<qry:insert-select doc-path="#SOURCE:" name="RS1"/>
				</qry:element>
			</qry:main>
			<qry:select doc="SOURCE" name="RS1">
				<qry:xquery>
					for $r in sql('
			SELECT t.oi_recurso as ID, t.c_recurso as CODE, 
			PRY01_PROYS_REC.oi_proy_rec as VALUE,
			PER01_PERSONAL.d_ape_y_nom as TEXT, SEC.policy  
			
			FROM PRY05_RECURSOS as t, PRY01_PROYS_REC,
			PRY01_PROYS_REQ,
						
			NMD_SECURITY(class=\'NucleusProject.Base.Project.Recursos.RECURSO\') as SEC, 
			PER01_PERSONAL 
			
			JOIN 
			t.oi_recurso LEFT OUTER SEC.id , 
			pry01_proys_rec.oi_proy_req INNER pry01_proys_req.oi_proy_req,
			pry01_proys_rec.oi_recurso INNER t.oi_recurso, 
			t.oi_recurso INNER PRY01_PROYS_REC.oi_recurso,
			t.oi_personal LEFT OUTER PER01_PERSONAL.oi_personal
						
			WHERE 
		  PRY01_PROYS_REQ.oi_proyecto={#SOURCE:helper-mess/@oi_proyecto}
			AND PRY01_PROYS_REQ.oi_perfil={#SOURCE:helper-mess/@oi_perfil}
			 
			 
			ORDER BY CODE asc')/ROWS/ROW
				</qry:xquery>
				<qry:out>
					<qry:element name="ROW">
						<qry:attribute value="$r/@VALUE" name="id"/>
						<qry:attribute value="$r/@VALUE" name="value"/>
						<qry:attribute value="$r/@CODE" name="code"/>
						<qry:attribute value="$r/@TEXT" name="text"/>
						<qry:attribute value="$r/@policy" name="policy"/>
					</qry:element>
				</qry:out>
			</qry:select>
		</qry:define>
	</flow:declare>
</flow:flow>
