<flow:flow xmlns:flow="nomad_engine.flow" xmlns:qry="nomad_engine.qry" name="NucleusProject.Base.Project.Recursos.RECURSO_ASIGNADO_TAREA.guia" extends="NucleusProject.Base.Project.Recursos.RECURSO.guia.autoflow">
	<flow:info label="Flow guia para NucleusProject.Base.Project.Recursos.RECURSO"/>
	<flow:main doc="SOURCE">
		<flow:action name="OPEN-GUIA">
			<flow:open-form parent-doc-path="#SOURCE:" doc-path="#SOURCE:" mode="SHOW" form-class="NucleusProject.Base.Project.Recursos.RECURSO.guia.autoform"/>
		</flow:action>
	</flow:main>
	<flow:declare>
		<qry:define declare="&lt;helper-mess  oi_tarea=&quot;5&quot; /&gt;" name="X2C">
			<qry:main doc="SOURCE">
				<qry:element name="ROW">
					<qry:insert-select doc-path="#SOURCE:" name="RS1"/>
				</qry:element>
			</qry:main>
			<qry:select doc="SOURCE" name="RS1">
				<qry:xquery>
					for $r in sql('
			SELECT 
				t.oi_recurso as ID, 
				t.c_recurso as CODE, 
				PER01_PERSONAL.d_ape_y_nom as TEXT, 
				SEC.policy  
			FROM 
				PRY05_RECURSOS as t, 
				PRY02_TAREAS_REC ,
				PRY02_TAREAS,
				PRY02_TAREAS_REQ,
				PRY01_PROYS_REC,
				NMD_SECURITY(class=\'NucleusProject.Base.Project.Recursos.RECURSO\') as SEC, 
				PER01_PERSONAL 
			JOIN 
				t.oi_recurso LEFT OUTER SEC.id,  
				PRY02_TAREAS_REC.oi_tarea_req INNER PRY02_TAREAS_REQ.oi_tarea_req,
				PRY02_TAREAS_REQ.oi_tarea INNER PRY02_TAREAS.oi_tarea,
				PRY01_PROYS_REC.oi_proy_rec INNER PRY02_TAREAS_REC.oi_proy_rec,				
				PRY01_PROYS_REC.oi_recurso INNER t.oi_recurso,
				t.oi_personal LEFT OUTER PER01_PERSONAL.oi_personal
			WHERE 
				PRY02_TAREAS.oi_tarea = {#SOURCE:helper-mess/@oi_tarea}
			ORDER BY CODE asc')/ROWS/ROW
				</qry:xquery>
				<qry:out>
					<qry:attribute value="$r/@ID" name="id"/>
					<qry:attribute value="$r/@ID" name="value"/>
					<qry:attribute value="$r/@CODE" name="code"/>
					<qry:attribute value="$r/@TEXT" name="text"/>
				</qry:out>
			</qry:select>
		</qry:define>
		<qry:define declare="&lt;helper-mess CODE=&quot;nacho&quot; oi_tarea=&quot;5&quot;/&gt;" name="C2X">
			<qry:main doc="SOURCE">
				<qry:append-doc doc-path="#SOURCE:helper-mess" name="INDOC"/>
				<qry:element name="ROW">
					<qry:insert-select doc-path="#SOURCE:" name="RS1"/>
				</qry:element>
			</qry:main>
			<qry:select doc="SOURCE" name="RS1">
				<qry:xquery>
					for $r in sql('
			SELECT 
				t.oi_recurso as ID, 
				t.c_recurso as CODE, 
				PER01_PERSONAL.d_ape_y_nom as TEXT, 
				SEC.policy  
			FROM 
				PRY05_RECURSOS as t, 
				PRY02_TAREAS_REC ,
				PRY02_TAREAS,
				PRY02_TAREAS_REQ,
				PRY01_PROYS_REC,
				NMD_SECURITY(class=\'NucleusProject.Base.Project.Recursos.RECURSO\') as SEC, 
				PER01_PERSONAL 
			JOIN 
				t.oi_recurso LEFT OUTER SEC.id,  
				PRY02_TAREAS_REC.oi_tarea_req INNER PRY02_TAREAS_REQ.oi_tarea_req,
				PRY02_TAREAS_REQ.oi_tarea INNER PRY02_TAREAS.oi_tarea,
				PRY01_PROYS_REC.oi_proy_rec INNER PRY02_TAREAS_REC.oi_proy_rec,				
				PRY01_PROYS_REC.oi_recurso INNER t.oi_recurso,
				t.oi_personal LEFT OUTER PER01_PERSONAL.oi_personal
			WHERE 
				t.c_recurso={substring_before(#INDOC:@CODE,\'-\')}  
				AND PRY02_TAREAS.oi_tarea = {#SOURCE:helper-mess/@oi_tarea}				 
			ORDER BY CODE asc')/ROWS/ROW
				</qry:xquery>
				<qry:out>
					<qry:attribute value="$r/@policy" name="policy"/>
					<qry:attribute value="''" name="SUB_SEARCH"/>
					<qry:attribute value="''" name="PARENTID"/>
					<qry:attribute value="$r/@ID" name="id"/>
					<qry:attribute value="$r/@ID" name="value"/>
					<qry:attribute value="$r/@CODE" name="code"/>
					<qry:attribute value="$r/@TEXT" name="text"/>
				</qry:out>
			</qry:select>
		</qry:define>
		<qry:define declare="&lt;helper-mess oi_tarea=&quot;5&quot;/&gt;" name="HELP">
			<qry:main doc="SOURCE">
				<qry:element name="ROWS">
					<qry:insert-select doc-path="#SOURCE:" name="RS1"/>
				</qry:element>
			</qry:main>
			<qry:select doc="SOURCE" name="RS1">
				<qry:xquery>
					for $r in sql('
			SELECT 
				t.oi_recurso as ID, 
				t.c_recurso as CODE, 
				PER01_PERSONAL.d_ape_y_nom as TEXT, 
				SEC.policy  
			FROM 
				PRY05_RECURSOS as t, 
				PRY02_TAREAS_REC ,
				PRY02_TAREAS,
				PRY02_TAREAS_REQ,
				PRY01_PROYS_REC,
				NMD_SECURITY(class=\'NucleusProject.Base.Project.Recursos.RECURSO\') as SEC, 
				PER01_PERSONAL 
			JOIN 
				t.oi_recurso LEFT OUTER SEC.id,  
				PRY02_TAREAS_REC.oi_tarea_req INNER PRY02_TAREAS_REQ.oi_tarea_req,
				PRY02_TAREAS_REQ.oi_tarea INNER PRY02_TAREAS.oi_tarea,
				PRY01_PROYS_REC.oi_proy_rec INNER PRY02_TAREAS_REC.oi_proy_rec,				
				PRY01_PROYS_REC.oi_recurso INNER t.oi_recurso,
				t.oi_personal LEFT OUTER PER01_PERSONAL.oi_personal
			WHERE 
				PRY02_TAREAS.oi_tarea = {#SOURCE:helper-mess/@oi_tarea}
			ORDER BY CODE asc')/ROWS/ROW
				</qry:xquery>
				<qry:out>
					<qry:element name="ROW">
						<qry:attribute value="$r/@ID" name="id"/>
						<qry:attribute value="$r/@ID" name="value"/>
						<qry:attribute value="$r/@CODE" name="code"/>
						<qry:attribute value="$r/@TEXT" name="text"/>
						<qry:attribute value="$r/@policy" name="policy"/>
					</qry:element>
				</qry:out>
			</qry:select>
		</qry:define>
	</flow:declare>
</flow:flow>
