<flow:flow xmlns:flow="nomad_engine.flow" xmlns:doc="nomad_engine.doc" name="NucleusRH.Base.Capacitacion.Reportes.AsistenciaporClase" default_action="initialize" extends="Nomad.Base.flow">
	<flow:info label="Flow para NucleusRH.Base.Capacitacion.Reportes.AsistenciaporClase"/>
	<flow:declare>
		<doc:define name="FILTERDATA">
			<FILTRO oi_dictado=""/>
		</doc:define>
	</flow:declare>
	<flow:main doc="SOURCE">
		<flow:action name="initialize">
			<flow:open-form form-class="NucleusRH.Base.Capacitacion.Reportes.AsistenciaporClase.filter.form" mode="FILTER" doc-path="#FILTERDATA:"/>
		</flow:action>
	</flow:main>
	<flow:form form-class="NucleusRH.Base.Capacitacion.Reportes.AsistenciaporClase.filter.form" name="NucleusRH.Base.Capacitacion.Reportes.AsistenciaporClase.filter.form:FILTER" mode="FILTER" doc="SOURCE">
		<flow:action name="ACCEPT">
			<flow:log text-path="#FILTERDATA:" text="asdf2213"/>
			<flow:html-gen template-file="NucleusRH.Base.Capacitacion.AsistenciaporClase.rpt" input-doc-path="#FILTERDATA:" out-file-path="#FILTERDATA:@report"/>
			<flow:open-form form-class="NucleusRH.Base.Capacitacion.Reportes.AsistenciaporClase.form" doc-path="#FILTERDATA:" mode="REPORT"/>
		</flow:action>
		<flow:action name="BACK">
			<flow:close-form/>
		</flow:action>
	</flow:form>
	<flow:form form-class="NucleusRH.Base.Capacitacion.Reportes.AsistenciaporClase.form" name="NucleusRH.Base.Capacitacion.Reportes.AsistenciaporClase.form:REPORT" doc="SOURCE" mode="REPORT">
		<flow:action name="on-show"/>
		<flow:action name="BACK">
			<flow:close-form/>
		</flow:action>
	</flow:form>
</flow:flow>
