<flow:flow xmlns:flow="nomad_engine.flow" xmlns:doc="nomad_engine.doc" extends="Nomad.base.HTML_XLS.flow" name="NucleusRH.Base.Capacitacion.Reportes.PresupuestoVsGasto" default_action="initialize">
	<flow:info label="Flow para NucleusRH.Base.Capacitacion.Reportes.PresupuestoVsGasto"/>
	<flow:declare>
		<doc:define name="FILTERDATA">
			<DATA oi_periodo="" oi_clase_org="">
				<ESTRUCTURAS/>
			</DATA>
		</doc:define>
	</flow:declare>
	<flow:main doc="SOURCE">
		<flow:action name="initialize">
			<flow:open-form form-class="NucleusRH.Base.Capacitacion.Reportes.PresupuestoVsGasto.filter.form" mode="FILTER" doc-path="#FILTERDATA:"/>
		</flow:action>
	</flow:main>
	<flow:form name="NucleusRH.Base.Capacitacion.Reportes.PresupuestoVsGasto.filter.form:FILTER" form-class="NucleusRH.Base.Capacitacion.Reportes.PresupuestoVsGasto.filter.form" mode="FILTER" doc="SOURCE">
		<flow:action name="ACCEPT">
			<flow:call-action action="Save-FILTER"/>
			<flow:exec-method priority="6" class="Nomad.Base.Report.GeneralReport.REPORT" out-attr-path="#BATCHDOC:@batch-id" method="ExecReportHTML">
				<flow:param value="NucleusRH.Base.Capacitacion.PresupuestoVsGasto.rpt" type="Nomad.NSystem.String" mode="in" name="ReportName"/>
				<flow:param doc-path="#FILTERDATA:" type="Nomad.NSystem.Proxy.NomadXML" mode="in" name="xmlParam"/>
			</flow:exec-method>
			<doc:set-attribute from-value="Presupuesto Vs. Costos Reales por Per&#237;odo" to-attr-path="#BATCHDOC:@title"/>
			<flow:open-form form-class="Nomad.base.HTML_XLS.form" parent-doc-path="#SOURCE:" mode="SHOW" doc-path="#BATCHDOC:"/>
		</flow:action>
		<flow:action name="on-show">
			<flow:call-action action="Load-FILTER"/>
		</flow:action>
		<flow:action name="BACK">
			<flow:close-form/>
		</flow:action>
		<flow:action name="Save-FILTER">
			<flow:save-user-data name="FILTER-NucleusRH.Base.Capacitacion.Reportes.PresupuestoVsGasto" doc-path="#FILTERDATA:"/>
		</flow:action>
		<flow:action name="Load-FILTER">
			<flow:load-user-data name="FILTER-NucleusRH.Base.Capacitacion.Reportes.PresupuestoVsGasto" doc="FILTERDATA"/>
		</flow:action>
	</flow:form>
</flow:flow>
