<flow:flow xmlns:flow="nomad_engine.flow" xmlns:doc="nomad_engine.doc" xmlns:qry="nomad_engine.qry" default_action="initialize" name="No_Logueado.flow" extends="Nomad.Base.flow">
	<flow:info label="Este es el INFO del flow"/>
	<flow:declare>
		<doc:define name="validausuario"/>
		<doc:define name="validalogin"/>
		<doc:define name="datosUsuario"/>
		<doc:define name="validaPostulacion"/>
		<doc:define name="datosLogin">
			<datos c_nro_doc="" c_password="" oi_tipo_documento="1"/>
		</doc:define>
		<doc:define name="datosRecuperarContrasenia">
			<datos nrodoc="" oi_tipo_documento="1" nombre_usuario=""/>
		</doc:define>
		<doc:define name="docrecuperapass"/>
		<doc:define name="docofertaslaborales">
			<data palabraclave="" oi_pais="" oi_provincia="" oi_localidad="" oi_zona="" oi_seniority="" oi_area_lab="" c_sexo="" f_desde="" f_hasta="" profesional="0"/>
		</doc:define>
		<doc:define name="QRY"/>
		<doc:define name="QRY_ID"/>
		<doc:define class="NucleusRH.Base.Postulantes.Ofertas_Laborales.OFERTA_LAB" name="OFERTA"/>
		<doc:define name="DATOS_CUENTA"/>
		<doc:define name="AUX1"/>
		<doc:define name="FECHA"/>
		<doc:define name="POSTU">
			<DATOS/>
		</doc:define>
		<doc:define name="LOCALIDADES">
			<DATOS/>
		</doc:define>
		<doc:define name="FILTERDATA">
			<data palabraclave="" oi_pais="" oi_provincia="" oi_localidad="" oi_zona="" oi_seniority="" oi_area_lab="" c_sexo="" f_desde="" f_hasta="" profesional="0"/>
		</doc:define>
		<doc:define class="Nomad.Base.Mail.OutputMails.DESTINATARIO" name="DESTINATARIO"/>
		<doc:define class="Nomad.Base.Mail.OutputMails.MAIL" name="MAIL"/>
		<qry:define declare="&lt;CV descr=&quot;[] &quot; c_pais=&quot;54&quot; l_licencia=&quot;0&quot; l_cabello_largo=&quot;0&quot; l_alta_web=&quot;0&quot; l_profesional=&quot;0&quot; l_jubilado=&quot;0&quot; c_pais_cel=&quot;54&quot; nmd-status=&quot;~i,c_nro_doc,d_nombres,d_apellido,c_nro_doc,f_nacim,c_sexo,d_calle,c_nro,c_piso,c_departamento,c_codigo_postal,c_area,te_nro,c_area_cel,te_celular,d_email,c_password,c_cv,f_alta_cv,f_actualizacion,&quot; c_cv=&quot;WEB29926293&quot; d_nombres=&quot;Federico Emanuel&quot; d_apellido=&quot;Olmos&quot; c_nro_doc=&quot;10101010&quot; f_nacim=&quot;19830128&quot; c_sexo=&quot;M&quot; d_calle=&quot;Suipacha&quot; c_nro=&quot;1212&quot; c_piso=&quot;7&quot; c_departamento=&quot;7&quot; c_codigo_postal=&quot;2000&quot; c_area=&quot;341&quot; te_nro=&quot;4306488&quot; c_area_cel=&quot;341&quot; te_celular=&quot;155591767&quot; d_email=&quot;federicoeolmos@hotmail.com&quot; c_password=&quot;perico&quot; f_alta_cv=&quot;20070509&quot; f_actualizacion=&quot;20070509&quot;&gt;&lt;oi_foto nmd-agr=&quot;1&quot; /&gt;&lt;oi_firma nmd-agr=&quot;1&quot; /&gt;&lt;oi_pais_nac nmd-agr=&quot;1&quot; /&gt;&lt;oi_provincia_nac nmd-agr=&quot;1&quot; /&gt;&lt;oi_localidad_nac nmd-agr=&quot;1&quot; /&gt;&lt;oi_pais nmd-agr=&quot;1&quot; value=&quot;1&quot; nmd-status=&quot;~u,value,&quot; /&gt;&lt;oi_provincia nmd-agr=&quot;1&quot; value=&quot;22&quot; nmd-status=&quot;~u,value,&quot; /&gt;&lt;oi_localidad nmd-agr=&quot;1&quot; value=&quot;113&quot; nmd-status=&quot;~u,value,&quot; /&gt;&lt;oi_titulo nmd-agr=&quot;1&quot; /&gt;&lt;oi_calificacion nmd-agr=&quot;1&quot; /&gt;&lt;oi_grupo_sanguineo nmd-agr=&quot;1&quot; /&gt;&lt;oi_tipo_documento nmd-agr=&quot;1&quot; value=&quot;1&quot; nmd-status=&quot;~u,value,&quot; /&gt;&lt;oi_afjp nmd-agr=&quot;1&quot; /&gt;&lt;oi_estado_civil nmd-agr=&quot;1&quot; /&gt;&lt;oi_idioma nmd-agr=&quot;1&quot; /&gt;&lt;oi_nacionalidad nmd-agr=&quot;1&quot; value=&quot;6&quot; nmd-status=&quot;~u,value,&quot; /&gt;&lt;oi_color_ojos nmd-agr=&quot;1&quot; /&gt;&lt;oi_color_pelo nmd-agr=&quot;1&quot; /&gt;&lt;oi_mot_busqueda nmd-agr=&quot;1&quot; /&gt;&lt;oi_resultado_medico nmd-agr=&quot;1&quot; /&gt; &lt;oi_tipo_movil nmd-agr=&quot;1&quot; /&gt;&lt;oi_tipo_licencia nmd-agr=&quot;1&quot; /&gt;&lt;oi_tipo_remun nmd-agr=&quot;1&quot; /&gt;&lt;oi_referenciado_por nmd-agr=&quot;1&quot; /&gt;&lt;oi_cont_web nmd-agr=&quot;1&quot; /&gt;&lt;AFJP_CV nmd-col=&quot;1&quot; /&gt;&lt;CURSOS_CV nmd-col=&quot;1&quot; /&gt;&lt;DOCUM_CV nmd-col=&quot;1&quot; /&gt;&lt;DOMIC_COL nmd-col=&quot;1&quot; /&gt;&lt;COMPET_CV nmd-col=&quot;1&quot; /&gt;&lt;ESTUDIOS_CV nmd-col=&quot;1&quot; /&gt;&lt;FLIARES_CV nmd-col=&quot;1&quot; /&gt;&lt;IDIOMAS_CV nmd-col=&quot;1&quot; /&gt;&lt;ANTEC_CV nmd-col=&quot;1&quot; /&gt;&lt;IMAGENES_CV nmd-col=&quot;1&quot; /&gt;&lt;DOC_DIG_CV nmd-col=&quot;1&quot; /&gt;&lt;POSTU_CV nmd-col=&quot;1&quot; /&gt;&lt;ENTREVISTAS nmd-col=&quot;1&quot; /&gt;&lt;TEST_CV nmd-col=&quot;1&quot; /&gt;&lt;REFERENCIAS nmd-col=&quot;1&quot; /&gt;&lt;PREF_CV nmd-col=&quot;1&quot; /&gt;&lt;HRS_CV nmd-col=&quot;1&quot; /&gt;&lt;CONOC_CV nmd-col=&quot;1&quot; /&gt;&lt;/CV&gt;&#13;&#10;" name="qryvalidausuario">
			<qry:main doc="SOURCE">
				<qry:element name="ROW">
					<qry:attribute name="a" value="0"/>
					<qry:insert-select name="CV" doc-path="#SOURCE:"/>
				</qry:element>
			</qry:main>
			<qry:select name="CV" doc="SOURCE">
				<qry:xquery>
					for $r in sql('
				SELECT 
					POS01_CV.oi_cv 
				FROM 
					POS01_CV 
				WHERE POS01_CV.c_nro_doc = {#SOURCE:CV/@c_nro_doc}')/ROWS/ROW
				</qry:xquery>
				<qry:out>
					<qry:attribute name="a" value="1"/>
					<qry:attribute name="oi_cv" value="$r/@oi_cv"/>
				</qry:out>
			</qry:select>
		</qry:define>
		<qry:define declare="&lt;datos c_nombre_usuario=&quot;1_10101010&quot; c_password=&quot;1&quot; oi_tipo_documento=&quot;1&quot; /&gt;" name="qryvalidalogin">
			<qry:main doc="SOURCE">
				<qry:element name="ROW">
					<qry:attribute name="a" value="0"/>
					<qry:insert-select name="CV" doc-path="#SOURCE:datos"/>
				</qry:element>
			</qry:main>
			<qry:select name="CV" doc="SOURCE">
				<qry:xquery>
					for $r in sql('
			SELECT 
				POS01_CV.oi_cv 
			FROM 
				POS01_CV 
			WHERE 
				POS01_CV.c_nro_doc = {#SOURCE:@c_nro_doc} 
				AND POS01_CV.c_password = {#SOURCE:@c_password}
				AND POS01_CV.oi_tipo_documento = {#SOURCE:@oi_tipo_documento}
			')/ROWS/ROW
				</qry:xquery>
				<qry:out>
					<qry:attribute name="a" value="1"/>
					<qry:attribute name="oi_cv" value="$r/@oi_cv"/>
				</qry:out>
			</qry:select>
		</qry:define>
		<qry:define declare="&lt;datos nrodoc=&quot;2175163&quot; oi_tipo_documento=&quot;1&quot; nombre_usuario=&quot;1_30689000&quot; /&gt;" name="qryrecuperapass">
			<qry:main doc="SOURCE">
				<qry:element name="ROW">
					<qry:attribute name="a" value="0"/>
					<qry:insert-select name="CV" doc-path="#SOURCE:datos"/>
				</qry:element>
			</qry:main>
			<qry:select name="CV" doc="SOURCE">
				<qry:xquery>
					for $r in sql('
				SELECT
					POS01_CV.oi_cv, 
					POS01_CV.c_nro_doc, 
					POS01_CV.c_password, 
					POS01_CV.d_email 
				FROM 
					POS01_CV 
				WHERE
					POS01_CV.c_nro_doc = {#SOURCE:@nrodoc}
					AND POS01_CV.oi_tipo_documento = {#SOURCE:@oi_tipo_documento}
			')/ROWS/ROW
				</qry:xquery>
				<qry:out>
					<qry:attribute name="a" value="1"/>
					<qry:attribute name="mail" value="$r/@d_email"/>
					<qry:attribute name="msg" value="'Los datos de su cuenta son:\nDocumento: '"/>
					<qry:attribute name="msg" value="./@msg + $r/@c_nro_doc"/>
					<qry:attribute name="msg" value="./@msg + '\nContrase&#241;a: '"/>
					<qry:attribute name="msg" value="./@msg + $r/@c_password"/>
				</qry:out>
			</qry:select>
		</qry:define>
		<qry:define declare="" name="qryregistracion">
			<qry:main doc="SOURCE">
				<qry:element name="ROW">
					<qry:attribute name="msg" value="'Su Curriculum Vitae ha sido registrado satisfactoriamente en Bayton Web \nPuede consultar o modificar sus datos en http://www.bayton.com.ar'"/>
				</qry:element>
			</qry:main>
		</qry:define>
		<qry:define declare="&lt;data palabraclave=&quot;&quot; oi_pais=&quot;&quot; oi_provincia=&quot;&quot; oi_localidad=&quot;&quot; oi_zona=&quot;&quot; oi_seniority=&quot;&quot; oi_area_lab=&quot;&quot; c_sexo=&quot;&quot; f_desde=&quot;&quot; f_hasta=&quot;&quot; profesional=&quot;1&quot;/&gt;" name="Filtrar_Ofertas">
			<qry:main doc="SOURCE">
				<qry:element name="DATA">
					<qry:attribute value="#SOURCE:data/@palabraclave" name="palabraclave"/>
					<qry:attribute value="#SOURCE:data/@oi_pais" name="oi_pais"/>
					<qry:attribute value="#SOURCE:data/@oi_provincia" name="oi_provincia"/>
					<qry:attribute value="#SOURCE:data/@oi_localidad" name="oi_localidad"/>
					<qry:attribute value="#SOURCE:data/@oi_zona" name="oi_zona"/>
					<qry:attribute value="#SOURCE:data/@oi_seniority" name="oi_seniority"/>
					<qry:attribute value="#SOURCE:data/@oi_area_lab" name="oi_area_lab"/>
					<qry:attribute value="#SOURCE:data/@c_sexo" name="c_sexo"/>
					<qry:attribute value="#SOURCE:data/@f_desde" name="f_desde"/>
					<qry:attribute value="#SOURCE:data/@f_hasta" name="f_hasta"/>
					<qry:attribute value="#SOURCE:data/@oi_oferta_lab" name="oi_oferta_lab"/>
					<qry:attribute value="iif(#SOURCE:data/@profesional = '3', '', #SOURCE:data/@profesional)" name="profesional"/>
					<qry:element name="ROWSSIN">
						<qry:insert-select doc-path=".." name="Filtrar"/>
					</qry:element>
					<qry:element name="ROWS">
						<qry:insert-select doc-path="../ROWSSIN" name="PalabraClave"/>
					</qry:element>
				</qry:element>
			</qry:main>
			<qry:select name="Filtrar" doc="SOURCE">
				<qry:xquery>
					for $r in sql('
				SELECT 
					ORG35_PROVINCIAS.d_provincia,
					ORG19_LOCALIDADES.d_localidad,
					ORG35_PAISES.d_pais,
					ORG19_ZONAS.d_zona,
					POS04_SENIORITY.d_seniority,
					POS05_AREAS_LAB.d_area_lab,
					POS03_OFERTAS_LAB.f_oferta_lab,
					POS03_OFERTAS_LAB.f_cierre,
					POS03_OFERTAS_LAB.oi_oferta_lab,
					POS03_OFERTAS_LAB.c_sexo,
					POS03_OFERTAS_LAB.c_oferta_lab,
					POS03_OFERTAS_LAB.d_oferta_lab,
					POS03_OFERTAS_LAB.o_oferta_lab 
				FROM 
					POS03_OFERTAS_LAB, 
					ORG35_PAISES, 
					ORG35_PROVINCIAS,
					ORG19_LOCALIDADES, 
					ORG19_ZONAS, 
					POS04_SENIORITY, 
					POS05_AREAS_LAB
				JOIN
					POS03_OFERTAS_LAB.oi_pais LEFT OUTER ORG35_PAISES.oi_pais,
				  POS03_OFERTAS_LAB.oi_provincia LEFT OUTER ORG35_PROVINCIAS.oi_provincia,
				  POS03_OFERTAS_LAB.oi_localidad LEFT OUTER ORG19_LOCALIDADES.oi_localidad,
				  POS03_OFERTAS_LAB.oi_zona LEFT OUTER ORG19_ZONAS.oi_zona,
				 	POS03_OFERTAS_LAB.oi_seniority LEFT OUTER POS04_SENIORITY.oi_seniority,
					POS03_OFERTAS_LAB.oi_area_lab LEFT OUTER POS05_AREAS_LAB.oi_area_lab				  
				WHERE 1=1                 
				{%? (#SOURCE:@oi_oferta_lab != '')	
					{% AND POS03_OFERTAS_LAB.oi_oferta_lab = {#SOURCE:@oi_oferta_lab} %} 
					{% %} 
				%}  								
				{%? (#SOURCE:@oi_pais != '')	
					{% AND POS03_OFERTAS_LAB.oi_pais={%=#SOURCE:@oi_pais %} %} 
					{% %} 
				%} 
				{%? (#SOURCE:@oi_provincia != '')	
					{% AND POS03_OFERTAS_LAB.oi_provincia={%=#SOURCE:@oi_provincia %} %} 
					{% %} 
				%}
				{%? (#SOURCE:@oi_localidad != '')	
					{% AND POS03_OFERTAS_LAB.oi_localidad={%=#SOURCE:@oi_localidad %} %} 
					{% %} 
				%}
				{%? (#SOURCE:@oi_zona != '')	
					{% AND POS03_OFERTAS_LAB.oi_zona={%=#SOURCE:@oi_zona %} %} 
					{% %} 
				%}
				{%? (#SOURCE:@oi_seniority != '')	
					{% AND POS03_OFERTAS_LAB.oi_seniority={%=#SOURCE:@oi_seniority %} %} 
					{% %} 
				%}
				{%? (#SOURCE:@oi_area_lab != '')	
					{% AND POS03_OFERTAS_LAB.oi_area_lab={%=#SOURCE:@oi_area_lab %} %} 
					{% %} 
				%}
				{%? (#SOURCE:@f_desde != '')	
					{% AND POS03_OFERTAS_LAB.f_oferta_lab &gt;= {#SOURCE:@f_desde} %} 
					{% %} 
				%}
				{%? (#SOURCE:@f_hasta != '')	
					{% AND POS03_OFERTAS_LAB.f_oferta_lab &lt;= {#SOURCE:@f_hasta} %} 
					{% %} 
				%} 
				{%? (#SOURCE:@c_sexo != '')	
					{% AND POS03_OFERTAS_LAB.c_sexo = {#SOURCE:@c_sexo} %} 
					{% %}
				%}
        AND (ISNULL(POS03_OFERTAS_LAB.f_cierre)
        	OR POS03_OFERTAS_LAB.f_cierre &gt;= now())
        ORDER BY f_oferta_lab DESC
			')/ROWS/ROW
				</qry:xquery>
				<qry:out>
					<qry:element name="ROW">
						<qry:attribute value="$r/@d_provincia" name="provincia"/>
						<qry:attribute value="$r/@d_localidad" name="localidad"/>
						<qry:attribute value="$r/@d_pais" name="pais"/>
						<qry:attribute value="$r/@d_zona" name="zona"/>
						<qry:attribute value="$r/@d_seniority" name="seniority"/>
						<qry:attribute value="$r/@l_profesional" name="profesional"/>
						<qry:attribute value="$r/@d_area_lab" name="area_lab"/>
						<qry:attribute name="d_oferta_lab" value="$r/@d_oferta_lab"/>
						<qry:attribute value="format_date($r/@f_oferta_lab, 'dd/mm/yyyy')" name="f_oferta_lab"/>
						<qry:attribute value="format_date($r/@f_cierre, 'dd/mm/yyyy')" name="f_cierre"/>
						<qry:attribute value="$r/@oi_oferta_lab" name="oi_oferta_lab"/>
						<qry:attribute value="$r/@c_sexo" name="c_sexo"/>
						<qry:attribute value="$r/@c_oferta_lab" name="c_oferta_lab"/>
						<qry:attribute value="$r/@o_oferta_lab" name="o_oferta_lab"/>
					</qry:element>
				</qry:out>
			</qry:select>
			<qry:select doc="SOURCE" name="PalabraClave">
				<qry:xquery>
					for $r in #SOURCE:ROW[contains(upper_case(@c_oferta_lab),upper_case(#SOURCE:../@palabraclave)) 
or contains(upper_case(@d_oferta_lab),upper_case(#SOURCE:../@palabraclave)) 
or contains(upper_case(@o_oferta_lab),upper_case(#SOURCE:../@palabraclave))]
				</qry:xquery>
				<qry:out>
					<qry:element name="ROW">
						<qry:attribute value="$r/@oi_oferta_lab" name="id"/>
						<qry:attribute value="$r/@provincia" name="provincia"/>
						<qry:attribute value="$r/@localidad" name="localidad"/>
						<qry:attribute value="$r/@pais" name="pais"/>
						<qry:attribute value="$r/@zona" name="zona"/>
						<qry:attribute value="$r/@seniority" name="seniority"/>
						<qry:attribute value="$r/@area_lab" name="area_lab"/>
						<qry:attribute value="$r/@d_oferta_lab" name="d_oferta_lab"/>
						<qry:attribute value="$r/@f_oferta_lab" name="f_oferta_lab"/>
						<qry:attribute value="format_date($r/@f_oferta_lab, 'dd/mm/yyyy')" name="f_oferta_lab_format"/>
						<qry:attribute value="$r/@f_cierre" name="f_cierre"/>
						<qry:attribute value="$r/@oi_oferta_lab" name="oi_oferta_lab"/>
						<qry:attribute value="$r/@c_sexo" name="c_sexo"/>
						<qry:attribute value="$r/@c_oferta_lab" name="c_oferta_lab"/>
						<qry:attribute value="$r/@o_oferta_lab" name="o_oferta_lab"/>
					</qry:element>
				</qry:out>
			</qry:select>
		</qry:define>
		<qry:define declare="&lt;DATOS oi_oferta_lab=&quot;2&quot; oi_cv=&quot;2&quot; /&gt;" name="qry_postulacion">
			<qry:main doc="SOURCE">
				<qry:element name="ROW">
					<qry:attribute name="a" value="0"/>
					<qry:insert-select name="CV" doc-path="#SOURCE:datos"/>
				</qry:element>
			</qry:main>
			<qry:select name="CV" doc="SOURCE">
				<qry:xquery>
					for $r in sql('			
				SELECT
					POS01_POSTU_CV.oi_cv 					
				FROM 
					POS01_POSTU_CV 
				WHERE 
					POS01_POSTU_CV.oi_cv = {#SOURCE:@oi_cv}
					AND POS01_POSTU_CV.oi_oferta_lab = {#SOURCE:@oi_oferta_lab}
			')/ROWS/ROW
				</qry:xquery>
				<qry:out>
					<qry:attribute name="a" value="1"/>
					<qry:attribute name="fecha" value="now()"/>
				</qry:out>
			</qry:select>
		</qry:define>
		<doc:define name="PARAMETERS"/>
		<qry:define name="qry_localidades">
			<qry:main doc="SOURCE">
				<qry:element name="Provincias">
					<qry:insert-select name="qry_provincias"/>
				</qry:element>
			</qry:main>
			<qry:select doc="SOURCE" name="qry_provincias">
				<qry:xquery>
					for $r in sql('
						SELECT 
							ORG35_PROVINCIAS.oi_provincia,
							ORG35_PROVINCIAS.c_provincia 
						FROM 
							ORG35_PROVINCIAS	
					')/ROWS/ROW
				</qry:xquery>
				<qry:out>
					<qry:element name="Provincia">
						<qry:attribute name="id" value="$r/@oi_provincia"/>
						<qry:attribute name="code" value="$r/@c_provincia"/>
						<qry:element name="OPTS">
							<!--qry:insert-select doc-path=".." name="qry_localidades"/-->
						</qry:element>
					</qry:element>
				</qry:out>
			</qry:select>
			<qry:select doc="SOURCE" name="qry_localidades">
				<qry:xquery>
					for $r in sql('
						SELECT 
							ORG19_LOCALIDADES.oi_localidad,
							ORG19_LOCALIDADES.c_localidad							 
						FROM 
							ORG19_LOCALIDADES
						WHERE 
							ORG19_LOCALIDADES.oi_provincia = {#SOURCE:@id} and 1=2
					')/ROWS/ROW
				</qry:xquery>
				<qry:out>
					<qry:element name="OPT">
						<qry:attribute name="value" value="$r/@oi_localidad"/>
						<qry:attribute name="text" value="$r/@d_localidad"/>
					</qry:element>
				</qry:out>
			</qry:select>
		</qry:define>
		<qry:define name="f_hoy">
			<qry:main doc="SOURCE">
				<qry:element name="ROW">
					<qry:attribute name="f_hoy" value="Now()"/>
				</qry:element>
			</qry:main>
		</qry:define>
		<doc:define name="DOC_RPT">
			<data palabraclave="" oi_pais="" oi_provincia="" oi_localidad="" oi_zona="" oi_seniority="" oi_area_lab="" c_sexo="" f_desde="" f_hasta="" profesional=""/>
		</doc:define>
		<doc:define name="ACUERDO"/>
		<qry:define name="acuerdoPrivacidad" declare="&lt;DATOS oi_oferta_lab=&quot;2&quot; oi_cv=&quot;2&quot; /&gt;">
			<qry:main doc="SOURCE">
				<qry:element name="ROW">
					<qry:insert-select name="AcuerdoPrivacidad" doc-path="#SOURCE:"/>
				</qry:element>
			</qry:main>
			<qry:select name="AcuerdoPrivacidad">
				<qry:xquery>
					for $r in sql('
				SELECT ORG26_PARAMETROS.oi_parametro, ORG26_PARAMETROS.d_valor
				FROM ORG26_PARAMETROS
				WHERE ORG26_PARAMETROS.c_parametro = \'AcuerdoPrivacidad\'
			')/ROWS/ROW
				</qry:xquery>
				<qry:out>
					<qry:attribute name="oi_documento_digital" value="$r/@d_valor"/>
				</qry:out>
			</qry:select>
		</qry:define>
	</flow:declare>
	<flow:main doc="InData">
		<flow:action name="initialize">
			<doc:set-attribute to-attr-path="#datosLogin:@c_nro_doc"/>
			<doc:set-attribute to-attr-path="#datosLogin:@c_password"/>
			<doc:set-attribute to-attr-path="#datosLogin:@c_nro_doc"/>
			<doc:set-attribute from-value="1" to-attr-path="#datosLogin:@oi_tipo_documento"/>
			<flow:open-form mode="EDIT" form-class="NucleusRH.Base.Postulantes.Web.login.form" doc-path="#datosLogin:"/>
		</flow:action>
	</flow:main>
	<flow:form name="loginModoEdit" extends="baseNoLogueado" mode="EDIT" form-class="NucleusRH.Base.Postulantes.Web.login.form" doc="InData">
		<flow:action name="registreseaqui">
			<doc:new-object class="NucleusRH.Base.Postulantes.CV.CV" doc="DDO"/>
			<doc:set-attribute to-attr-path="#DDO:oi_tipo_documento/@value" from-value="1"/>
			<flow:open-form doc-path="#DDO:" mode="EDIT" form-class="NucleusRH.Base.Postulantes.Web.registracion.form"/>
		</flow:action>
		<flow:action name="olvidocontrasenia">
			<doc:set-attribute to-attr-path="#datosRecuperarContrasenia:@nrodoc"/>
			<doc:set-attribute from-value="1" to-attr-path="#datosRecuperarContrasenia:@oi_tipo_documento"/>
			<doc:set-attribute to-attr-path="#datosRecuperarContrasenia:@nombre_usuario"/>
			<flow:open-form doc-path="#datosRecuperarContrasenia:" mode="EDIT" form-class="NucleusRH.Base.Postulantes.Web.olvidopassword.form"/>
		</flow:action>
		<flow:action name="ingresar">
			<doc:load-qry output-doc="validalogin" input-doc-path="#InData:" qry="qryvalidalogin"/>
			<flow:call-action else="ingresarfail" eq="1" if="#validalogin:@a" action="ingresarok"/>
			<doc:set-attribute to-attr-path="#datosLogin:@c_nro_doc" from-value=""/>
			<doc:set-attribute to-attr-path="#datosLogin:@c_password" from-value=""/>
			<doc:set-attribute to-attr-path="#datosLogin:@c_nro_doc" from-value=""/>
			<doc:set-attribute from-value="1" to-attr-path="#datosLogin:@oi_tipo_documento"/>
		</flow:action>
		<flow:action name="ingresarok">
			<flow:exit-flow next-flow="NucleusRH.Base.Postulantes.Web.flow" next-action="initialize" return-path="#validalogin:"/>
		</flow:action>
		<flow:action name="ingresarfail">
			<flow:call-action action="gotoLoginFail"/>
		</flow:action>
		<flow:action name="gotoLoginFail">
			<doc:set-attribute to-attr-path="#datosLogin:@c_nro_doc"/>
			<doc:set-attribute to-attr-path="#datosLogin:@c_password"/>
			<doc:set-attribute to-attr-path="#datosLogin:@c_nro_doc"/>
			<doc:set-attribute from-value="#datosLogin:@oi_tipo_documento" to-attr-path="#datosLogin:@oi_tipo_documento"/>
			<flow:open-form mode="FAIL" form-class="NucleusRH.Base.Postulantes.Web.login.form" doc-path="#datosLogin:"/>
		</flow:action>
		<flow:action name="After-Back"/>
	</flow:form>
	<flow:form name="baseNoLogueado" form-class="NucleusRH.Base.Postulantes.Web.baseNoLogueado.form" mode="EDIT" doc="InData" virtual="1">
		<flow:action name="titleClick_CV">
			<flow:close-form next-action="After-Back"/>
			<doc:set-attribute to-attr-path="#datosLogin:@c_nro_doc"/>
			<doc:set-attribute to-attr-path="#datosLogin:@c_password"/>
			<doc:set-attribute to-attr-path="#datosLogin:@c_nro_doc"/>
			<doc:set-attribute from-value="1" to-attr-path="#datosLogin:@oi_tipo_documento"/>
		</flow:action>
		<flow:action name="titleClick_OfertasLaborales">
			<flow:open-form mode="NOLOGUEADO" form-class="NucleusRH.Base.Postulantes.Web.OfertasLaborales.Filtro.form" doc-path="#docofertaslaborales:"/>
		</flow:action>
		<flow:action name="After-Back">
			<flow:close-form/>
		</flow:action>
	</flow:form>
	<flow:form name="NucleusRH.Base.Postulantes.Web.login.form" extends="loginModoEdit" mode="FAIL" form-class="NucleusRH.Base.Postulantes.Web.login.form" doc="InData"/>
	<flow:group name="Registrarse">
		<flow:form name="NucleusRH.Base.Postulantes.Web.registracion.form:EDIT" extends="baseNoLogueado" mode="EDIT" doc="InData" form-class="NucleusRH.Base.Postulantes.Web.registracion.form">
			<flow:action name="cancelar">
				<flow:close-form/>
				<flow:call-action action="gotoLogin"/>
			</flow:action>
			<flow:action name="gotoLogin">
				<doc:set-attribute to-attr-path="#datosLogin:@c_nro_doc"/>
				<doc:set-attribute to-attr-path="#datosLogin:@c_password"/>
				<doc:set-attribute to-attr-path="#datosLogin:@c_nro_doc"/>
				<doc:set-attribute from-value="1" to-attr-path="#datosLogin:@oi_tipo_documento"/>
				<flow:open-form mode="EDIT" form-class="NucleusRH.Base.Postulantes.Web.login.form" doc-path="#datosLogin:"/>
			</flow:action>
			<flow:action name="read_policy">
				<doc:load-qry output-doc="ACUERDO" qry="acuerdoPrivacidad"/>
				<flow:log text="JPRACUERDO" text-path="#ACUERDO:"/>
				<flow:open-form doc-path="#ACUERDO:" mode="SHOW" form-class="NucleusRH.Base.Postulantes.Web.AcuerdoPrivacidad.form"/>
			</flow:action>
			<flow:action name="on-show">
				<doc:load-qry output-doc="LOCALIDADES" qry="qry_localidades"/>
				<flow:attach-doc doc-path="#LOCALIDADES:" attach-id="localidades"/>
			</flow:action>
			<flow:action name="aceptar">
				<doc:load-qry input-doc-path="#InData:" output-doc="validausuario" qry="qryvalidausuario"/>
				<flow:call-action else="yaexiste" eq="0" if="#validausuario:@a" action="grabar"/>
			</flow:action>
			<flow:action name="grabar">
				<doc:load-qry qry="f_hoy" output-doc="FECHA"/>
				<doc:set-attribute to-attr-path="#InData:@f_alta_cv" from-attr-path="#FECHA:@f_hoy"/>
				<doc:set-attribute to-attr-path="#InData:@f_actualizacion" from-attr-path="#FECHA:@f_hoy"/>
				<doc:set-attribute from-value="1" to-attr-path="#InData:@l_alta_web"/>
				<flow:log text-path="#InData:" text="logsave"/>
				<doc:save-object class="NucleusRH.Base.Postulantes.CV.CV" doc="InData"/>
				<flow:call-action action="SEND_MAIL"/>
				<doc:set-attribute from-attr-path="#InData:@id" to-attr-path="#validausuario:@oi_cv"/>
				<flow:exit-flow return-path="#validausuario:" next-flow="NucleusRH.Base.Postulantes.Web.flow" next-action="initialize"/>
			</flow:action>
			<flow:action name="yaexiste">
				<flow:close-form/>
				<flow:open-form form-class="NucleusRH.Base.Postulantes.Web.usuarioYaExistente.form" doc-path="#InData:" mode="EDIT"/>
			</flow:action>
			<flow:action name="SEND_MAIL">
				<doc:new-object class="Nomad.Base.Mail.OutputMails.DESTINATARIO" doc="DESTINATARIO"/>
				<doc:set-attribute to-attr-path="#DESTINATARIO:ENTIDAD/@value" from-value="000000000000-000000000000-000000000000"/>
				<doc:set-attribute from-attr-path="#InData:@d_email" to-attr-path="#DESTINATARIO:@MAIL_SUSTITUTO"/>
				<doc:new-object doc="MAIL" class="Nomad.Base.Mail.OutputMails.MAIL"/>
				<doc:set-attribute from-value="BaytonWeb" to-attr-path="#MAIL:@DESDE_APLICACION"/>
				<doc:set-attribute from-attr-path="#FORM:ctrl[@id='f_hoy']/@xval" to-attr-path="#MAIL:@FECHA_CREACION"/>
				<doc:set-attribute from-value="BaytonWeb" to-attr-path="#MAIL:@REMITENTE"/>
				<doc:set-attribute from-value="BaytonWeb - Registraci&#243;n Satisfactoria" to-attr-path="#MAIL:@ASUNTO"/>
				<doc:load-qry output-doc="AUX1" qry="qryregistracion"/>
				<doc:set-attribute from-attr-path="#AUX1:@msg" to-attr-path="#MAIL:@CONTENIDO"/>
				<doc:add-object doc-path="#DESTINATARIO:" parent-doc-path="#MAIL:DESTINATARIOS"/>
				<doc:save-object class="Nomad.Base.Mail.OutputMails.MAIL" doc="MAIL"/>
			</flow:action>
		</flow:form>
		<flow:form name="NucleusRH.Base.Postulantes.Web.usuarioYaExistente.form" form-class="NucleusRH.Base.Postulantes.Web.usuarioYaExistente.form" extends="baseNoLogueado" mode="EDIT" doc="InData">
			<flow:action name="anterior">
				<flow:close-form/>
				<flow:open-form doc-path="#InData:" mode="EDIT" form-class="NucleusRH.Base.Postulantes.Web.registracion.form"/>
			</flow:action>
			<flow:action name="cancelar">
				<flow:close-form/>
				<flow:call-action action="gotoLogin"/>
			</flow:action>
			<flow:action name="gotoLogin">
				<doc:set-attribute to-attr-path="#datosLogin:@c_nro_doc"/>
				<doc:set-attribute to-attr-path="#datosLogin:@c_password"/>
				<doc:set-attribute to-attr-path="#datosLogin:@c_nro_doc"/>
				<doc:set-attribute from-value="1" to-attr-path="#datosLogin:@oi_tipo_documento"/>
				<flow:open-form mode="EDIT" form-class="NucleusRH.Base.Postulantes.Web.login.form" doc-path="#datosLogin:"/>
			</flow:action>
		</flow:form>
		<flow:form name="NucleusRH.Base.Postulantes.Web.registracionExitosa.form" form-class="NucleusRH.Base.Postulantes.Web.registracionExitosa.form" extends="baseNoLogueado" mode="EDIT" doc="InData">
			<flow:action name="aceptar">
				<doc:set-attribute from-attr-path="#InData:@id" to-attr-path="#validausuario:@oi_cv"/>
				<flow:exit-flow return-path="#validausuario:" next-flow="NucleusRH.Base.Postulantes.Web.flow" next-action="initialize"/>
			</flow:action>
			<flow:action name="gotoLogin">
				<flow:close-form/>
				<doc:set-attribute to-attr-path="#datosLogin:@c_nro_doc"/>
				<doc:set-attribute to-attr-path="#datosLogin:@c_password"/>
				<doc:set-attribute to-attr-path="#datosLogin:@c_nro_doc"/>
				<doc:set-attribute from-value="1" to-attr-path="#datosLogin:@oi_tipo_documento"/>
				<flow:open-form mode="EDIT" form-class="NucleusRH.Base.Postulantes.Web.login.form" doc-path="#datosLogin:"/>
			</flow:action>
		</flow:form>
		<flow:form name="NucleusRH.Base.Postulantes.Web.AcuerdoPrivacidad.form" form-class="NucleusRH.Base.Postulantes.Web.AcuerdoPrivacidad.form" extends="baseNoLogueado" mode="SHOW" doc="SOURCE">
			<flow:action name="BACK">
				<flow:close-form/>
			</flow:action>
		</flow:form>
	</flow:group>
	<flow:group name="Olvido password">
		<flow:form name="recuperarEdit" extends="baseNoLogueado" mode="EDIT" doc="InData" form-class="NucleusRH.Base.Postulantes.Web.olvidopassword.form">
			<flow:action name="aceptar">
				<doc:load-qry output-doc="docrecuperapass" input-doc-path="#InData:" qry="qryrecuperapass"/>
				<flow:call-action else="recuperarFail" eq="1" if="#docrecuperapass:@a" action="recuperarOk"/>
			</flow:action>
			<flow:action name="cancelar">
				<flow:close-form/>
				<flow:call-action action="gotoLogin"/>
			</flow:action>
			<flow:action name="gotoLogin">
				<doc:set-attribute to-attr-path="#datosLogin:@c_nro_doc"/>
				<doc:set-attribute to-attr-path="#datosLogin:@c_password"/>
				<doc:set-attribute to-attr-path="#datosLogin:@c_nro_doc"/>
				<doc:set-attribute from-value="1" to-attr-path="#datosLogin:@oi_tipo_documento"/>
				<flow:open-form mode="EDIT" form-class="NucleusRH.Base.Postulantes.Web.login.form" doc-path="#datosLogin:"/>
			</flow:action>
			<flow:action name="recuperarFail">
				<flow:close-form/>
				<flow:open-form form-class="NucleusRH.Base.Postulantes.Web.olvidopasswordfail.form" doc-path="#InData:" mode="EDIT"/>
			</flow:action>
			<flow:action name="recuperarOk">
				<flow:close-form/>
				<flow:open-form mode="EDIT" form-class="NucleusRH.Base.Postulantes.Web.olvidopasswordok.form" doc-path="#InData:"/>
				<doc:new-object class="Nomad.Base.Mail.OutputMails.DESTINATARIO" doc="DESTINATARIO"/>
				<doc:set-attribute to-attr-path="#DESTINATARIO:ENTIDAD/@value" from-value="000000000000-000000000000-000000000000"/>
				<doc:set-attribute from-attr-path="#docrecuperapass:@mail" to-attr-path="#DESTINATARIO:@MAIL_SUSTITUTO"/>
				<doc:new-object doc="MAIL" class="Nomad.Base.Mail.OutputMails.MAIL"/>
				<doc:set-attribute from-value="BaytonWeb" to-attr-path="#MAIL:@DESDE_APLICACION"/>
				<doc:set-attribute from-attr-path="#FORM:ctrl[@id='f_hoy']/@xval" to-attr-path="#MAIL:@FECHA_CREACION"/>
				<doc:set-attribute from-value="BaytonWeb" to-attr-path="#MAIL:@REMITENTE"/>
				<doc:set-attribute from-value="BaytonWeb - Recupero de Contrase&#241;a" to-attr-path="#MAIL:@ASUNTO"/>
				<doc:set-attribute from-attr-path="#docrecuperapass:@msg" to-attr-path="#MAIL:@CONTENIDO"/>
				<doc:add-object doc-path="#DESTINATARIO:" parent-doc-path="#MAIL:DESTINATARIOS"/>
				<doc:save-object class="Nomad.Base.Mail.OutputMails.MAIL" doc="MAIL"/>
			</flow:action>
		</flow:form>
		<flow:form name="NucleusRH.Base.Postulantes.Web.olvidopasswordfail.form" form-class="NucleusRH.Base.Postulantes.Web.olvidopasswordfail.form" extends="recuperarEdit" mode="EDIT" doc="InData">
			<flow:action name="volver">
				<flow:close-form/>
				<doc:set-attribute to-attr-path="#datosRecuperarContrasenia:@nrodoc"/>
				<doc:set-attribute from-value="1" to-attr-path="#datosRecuperarContrasenia:@oi_tipo_documento"/>