<flow:flow name="NucleusRH.Base.Organizacion.Localidades.LOCALIDAD.PROVINCIA.guia.flow" extends="Nomad.simple.guia.flow" xmlns:doc="nomad_engine.form" xmlns:qry="nomad_engine.form" xmlns:flow="nomad_engine.form">
	<flow:main doc="SOURCE">
		<flow:action name="OPEN-GUIA">
			<flow:open-form form-class="NucleusRH.Base.Organizacion.Localidades.LOCALIDAD.PROVINCIA.guia.form" parent-doc-path="#SOURCE:" doc-path="#SOURCE:" mode="SHOW"/>
		</flow:action>
	</flow:main>
	<flow:declare>
		<qry:define declare="                   &lt;helper-mess oi_provincia=&quot;2&quot; id=&quot;218&quot;/&gt;" name="X2C">
			<qry:main doc="SOURCE">
				<qry:element name="ROW">
					<qry:insert-select name="RS1" doc-path="#SOURCE:helper-mess"/>
				</qry:element>
			</qry:main>
			<qry:select xmlns:qry="nomad.xquery" name="RS1" doc="SOURCE">
				<qry:xquery>
					for $r in sql('
				SELECT ORG19_LOCALIDADES.oi_localidad,
				ORG19_LOCALIDADES.c_localidad,
				ORG19_LOCALIDADES.d_localidad
				FROM ORG19_LOCALIDADES
				WHERE ORG19_LOCALIDADES.oi_provincia = {#SOURCE:@oi_provincia}
				AND ORG19_LOCALIDADES.oi_localidad = {#SOURCE:@id}
			')ROWS/ROW
				</qry:xquery>
				<qry:out>
					<qry:attribute value="$r/@oi_localidad" name="id"/>
					<qry:attribute value="$r/@oi_localidad" name="value"/>
					<qry:attribute value="$r/@c_localidad" name="code"/>
					<qry:attribute value="$r/@d_localidad" name="text"/>
					<qry:insert-select doc-path="." name="SECURITY"/>
				</qry:out>
			</qry:select>
			<qry:select doc="PARAM" name="SECURITY">
				<qry:xquery>
					for $r in sql('
				SELECT NMD_SECURITY.policy 
				FROM NMD_SECURITY 
				WHERE NMD_SECURITY.class=\'NucleusRH.Base.Organizacion.Localidades.LOCALIDAD\' 
				AND NMD_SECURITY.id={#PARAM:@id}
			')/ROWS/ROW
				</qry:xquery>
				<qry:out>
					<qry:attribute value="$r/@policy" name="policy"/>
				</qry:out>
			</qry:select>
		</qry:define>
		<qry:define declare="&lt;helper-mess oi_provincia=&quot;2&quot; code=&quot;1&quot;/&gt;" name="C2X">
			<qry:main doc="SOURCE">
				<qry:element name="ROW">
					<qry:insert-select name="RS1" doc-path="#SOURCE:helper-mess"/>
				</qry:element>
			</qry:main>
			<qry:select xmlns:qry="nomad.xquery" name="RS1" doc="SOURCE">
				<qry:xquery>
					for $r in sql('
				SELECT ORG19_LOCALIDADES.oi_localidad,
				ORG19_LOCALIDADES.c_localidad,
				ORG19_LOCALIDADES.d_localidad
				FROM ORG19_LOCALIDADES
				WHERE ORG19_LOCALIDADES.oi_provincia = {#SOURCE:@oi_provincia}
				AND ORG19_LOCALIDADES.c_localidad = {substring_before(#SOURCE:@CODE,\'-\')}
			')ROWS/ROW
				</qry:xquery>
				<qry:out>
					<qry:attribute value="$r/@oi_localidad" name="id"/>
					<qry:attribute value="$r/@oi_localidad" name="value"/>
					<qry:attribute value="$r/@c_localidad" name="code"/>
					<qry:attribute value="$r/@d_localidad" name="text"/>
					<qry:insert-select doc-path="." name="SECURITY"/>
				</qry:out>
			</qry:select>
			<qry:select doc="PARAM" name="SECURITY">
				<qry:xquery>
					for $r in sql('
				SELECT NMD_SECURITY.policy 
				FROM NMD_SECURITY 
				WHERE NMD_SECURITY.class=\'NucleusRH.Base.Organizacion.Localidades.LOCALIDAD\' 
				AND NMD_SECURITY.id={#PARAM:@id}
			')/ROWS/ROW
				</qry:xquery>
				<qry:out>
					<qry:attribute value="$r/@policy" name="policy"/>
				</qry:out>
			</qry:select>
		</qry:define>
		<qry:define declare="&lt;helper-mess oi_provincia=&quot;3&quot; /&gt;" name="HELP">
			<qry:main doc="SOURCE">
				<qry:element name="ROWS">
					<qry:insert-select name="RS1" doc-path="#SOURCE:helper-mess"/>
				</qry:element>
			</qry:main>
			<qry:select xmlns:qry="nomad.xquery" name="RS1" doc="SOURCE">
				<qry:xquery>
					for $r in sql('
				SELECT ORG19_LOCALIDADES.oi_localidad,
				ORG19_LOCALIDADES.c_localidad,
				ORG19_LOCALIDADES.d_localidad
				FROM ORG19_LOCALIDADES
				WHERE ORG19_LOCALIDADES.oi_provincia = {#SOURCE:@oi_provincia}				
			')ROWS/ROW
				</qry:xquery>
				<qry:out>
					<qry:element name="ROW">
						<qry:attribute value="$r/@oi_localidad" name="id"/>
						<qry:attribute value="$r/@oi_localidad" name="value"/>
						<qry:attribute value="$r/@c_localidad" name="code"/>
						<qry:attribute value="$r/@d_localidad" name="text"/>
						<qry:insert-select doc-path="." name="SECURITY"/>
					</qry:element>
				</qry:out>
			</qry:select>
			<qry:select doc="PARAM" name="SECURITY">
				<qry:xquery>
					for $r in sql('
				SELECT NMD_SECURITY.policy 
				FROM NMD_SECURITY 
				WHERE NMD_SECURITY.class=\'NucleusRH.Base.Organizacion.Localidades.LOCALIDAD\' 
				AND NMD_SECURITY.id={#PARAM:@id}
			')/ROWS/ROW
				</qry:xquery>
				<qry:out>
					<qry:attribute value="$r/@policy" name="policy"/>
				</qry:out>
			</qry:select>
		</qry:define>
	</flow:declare>
	<flow:form mode="SHOW" doc="SOURCE" name="NucleusRH.Base.Organizacion.Localidades.LOCALIDAD.PROVINCIA.guia.form:SHOW" extends="Nomad.simple.guia.form:SHOW" form-class="NucleusRH.Base.Organizacion.Localidades.LOCALIDAD.PROVINCIA.guia.form"/>
</flow:flow>
