<flow:flow xmlns:flow="nomad_engine.flow" extends="NucleusRH.Base.Tiempos_Trabajados.LicenciasSec.LICENCIA_SEC.MAIN.STD.autoflow" default_action="LIST" name="NucleusRH.Base.Tiempos_Trabajados.LicenciasSec.LICENCIA_SEC.MAIN.STD.flow">
	<flow:form name="NucleusRH.Base.Tiempos_Trabajados.LicenciasSec.LICENCIA_SEC.MAIN.STD_REG.form:NEWCUS" extends="NucleusRH.Base.Tiempos_Trabajados.LicenciasSec.LICENCIA_SEC.MAIN.STD_REG.form:NEW" mode="NEW" parent-doc="PARENT" doc="SOURCE" form-class="NucleusRH.Base.Tiempos_Trabajados.LicenciasSec.LICENCIA_SEC.MAIN.STD_REG.form">
		<flow:action name="INT-SAVE">
			<flow:exec-method method="AltaLicenciaSec" class="NucleusRH.Base.Tiempos_Trabajados.LicenciasSec.LICENCIA_SEC">
				<flow:param doc="DDO" type="Nomad.NSystem.Object" mode="in" name="DDO"/>
				<flow:param attr-path="#SOURCE:@forzar" type="Nomad.NSystem.Boolean" mode="in" name="forzar"/>
			</flow:exec-method>
		</flow:action>
	</flow:form>
</flow:flow>
